(PID.TID 0000.0001) 
(PID.TID 0000.0001) #/ ======================================================
(PID.TID 0000.0001) #/                      MITgcm UV
(PID.TID 0000.0001) #/                      =========
(PID.TID 0000.0001) #/ ======================================================
(PID.TID 0000.0001) #/ execution environment starting up...
(PID.TID 0000.0001) 
(PID.TID 0000.0001) #/ MITgcmUV version:  checkpoint67s
(PID.TID 0000.0001) #/ Build user:        michai1
(PID.TID 0000.0001) #/ Build host:        ln01
(PID.TID 0000.0001) #/ Build date:        Wed Aug 31 15:49:03 BST 2022
(PID.TID 0000.0001) 
(PID.TID 0000.0001) #/ =======================================================
(PID.TID 0000.0001) #/ Execution Environment parameter file "eedata"
(PID.TID 0000.0001) #/ =======================================================
(PID.TID 0000.0001) ># Example "eedata" file
(PID.TID 0000.0001) ># Lines beginning "#" are comments
(PID.TID 0000.0001) ># nTx - No. threads per process in X
(PID.TID 0000.0001) ># nTy - No. threads per process in Y
(PID.TID 0000.0001) > &EEPARMS
(PID.TID 0000.0001) > /
(PID.TID 0000.0001) >
(PID.TID 0000.0001) ># Note: Some systems use & as the
(PID.TID 0000.0001) ># namelist terminator. Other systems
(PID.TID 0000.0001) ># use a / character (as shown here).
(PID.TID 0000.0001) 
(PID.TID 0000.0001) #/ =======================================================
(PID.TID 0000.0001) #/ Computational Grid Specification ( see files "SIZE.h" )
(PID.TID 0000.0001) #/                                  ( and "eedata"       )
(PID.TID 0000.0001) #/ =======================================================
(PID.TID 0000.0001)      nPx =   12 ; #* No. processes in X */
(PID.TID 0000.0001)      nPy =   10 ; #* No. processes in Y */
(PID.TID 0000.0001)      nSx =    1 ; #* No. tiles in X per process */
(PID.TID 0000.0001)      nSy =    1 ; #* No. tiles in Y per process */
(PID.TID 0000.0001)      sNx =   20 ; #* Tile size in X */
(PID.TID 0000.0001)      sNy =   20 ; #* Tile size in Y */
(PID.TID 0000.0001)      OLx =    4 ; #* Tile overlap distance in X */
(PID.TID 0000.0001)      OLy =    4 ; #* Tile overlap distance in Y */
(PID.TID 0000.0001)      nTx =    1 ; #* No. threads in X per process */
(PID.TID 0000.0001)      nTy =    1 ; #* No. threads in Y per process */
(PID.TID 0000.0001)       Nr =   50 ; #* No. levels in the vertical   */
(PID.TID 0000.0001)       Nx =  240 ; #* Total domain size in X ( = nPx*nSx*sNx ) */
(PID.TID 0000.0001)       Ny =  200 ; #* Total domain size in Y ( = nPy*nSy*sNy ) */
(PID.TID 0000.0001)   nTiles =    1 ; #* Total no. tiles per process ( = nSx*nSy ) */
(PID.TID 0000.0001)   nProcs =  120 ; #* Total no. processes ( = nPx*nPy ) */
(PID.TID 0000.0001) nThreads =    1 ; #* Total no. threads per process ( = nTx*nTy ) */
(PID.TID 0000.0001) usingMPI =    T ; #* Flag used to control whether MPI is in use */
(PID.TID 0000.0001)                   #*  note: To execute a program with MPI calls */
(PID.TID 0000.0001)                   #*  it must be launched appropriately e.g     */
(PID.TID 0000.0001)                   #*  "mpirun -np 64 ......"                    */
(PID.TID 0000.0001) useCoupler=   F ; #* Flag used to control communications with   */
(PID.TID 0000.0001)                   #*  other model components, through a coupler */
(PID.TID 0000.0001) useNest2W_parent =    F ;#* Control 2-W Nesting comm */
(PID.TID 0000.0001) useNest2W_child  =    F ;#* Control 2-W Nesting comm */
(PID.TID 0000.0001) debugMode =    F ; #* print debug msg. (sequence of S/R calls)  */
(PID.TID 0000.0001) printMapIncludesZeros=    F ; #* print zeros in Std.Output maps */
(PID.TID 0000.0001) maxLengthPrt1D=   65 #* maxLength of 1D array printed to StdOut */
(PID.TID 0000.0001) 
(PID.TID 0000.0001) ======= Starting MPI parallel Run =========
(PID.TID 0000.0001)  My Processor Name (len:  9 ) = nid006365
(PID.TID 0000.0001)  Located at (  0,  0) on processor grid (0: 11,0:  9)
(PID.TID 0000.0001)  Origin at  (     1,     1) on global grid (1:   240,1:   200)
(PID.TID 0000.0001)  North neighbor = processor 0001
(PID.TID 0000.0001)  South neighbor = processor 0009
(PID.TID 0000.0001)   East neighbor = processor 0010
(PID.TID 0000.0001)   West neighbor = processor 0110
(PID.TID 0000.0001) #/ ======================================================
(PID.TID 0000.0001) #/ Mapping of tiles to threads
(PID.TID 0000.0001) #/ ======================================================
(PID.TID 0000.0001) #/ -o- Thread   1, tiles (   1:   1,   1:   1)
(PID.TID 0000.0001) 
(PID.TID 0000.0001) #/ ======================================================
(PID.TID 0000.0001) #/ Tile <-> Tile connectvity table
(PID.TID 0000.0001) #/ ======================================================
(PID.TID 0000.0001) #/ Tile number: 000001 (process no. = 000000)
(PID.TID 0000.0001) #/        WEST: Tile = 000012, Process = 000110, Comm = messages
(PID.TID 0000.0001) #/                bi = 000001, bj = 000001
(PID.TID 0000.0001) #/        EAST: Tile = 000002, Process = 000010, Comm = messages
(PID.TID 0000.0001) #/                bi = 000001, bj = 000001
(PID.TID 0000.0001) #/       SOUTH: Tile = 000109, Process = 000009, Comm = messages
(PID.TID 0000.0001) #/                bi = 000001, bj = 000001
(PID.TID 0000.0001) #/       NORTH: Tile = 000013, Process = 000001, Comm = messages
(PID.TID 0000.0001) #/                bi = 000001, bj = 000001
(PID.TID 0000.0001) 
(PID.TID 0000.0001)  INI_PARMS: opening model parameter file "data"
(PID.TID 0000.0001)  OPEN_COPY_DATA_FILE: opening file data
(PID.TID 0000.0001) #/ =======================================================
(PID.TID 0000.0001) #/ Parameter file "data"
(PID.TID 0000.0001) #/ =======================================================
(PID.TID 0000.0001) ># ====================
(PID.TID 0000.0001) ># | Model parameters |
(PID.TID 0000.0001) ># ====================
(PID.TID 0000.0001) >#
(PID.TID 0000.0001) ># Continuous equation parameters
(PID.TID 0000.0001) > &PARM01
(PID.TID 0000.0001) ># Thermocline from 500 to 760m, ie shifted 300m relative to new (13/04) rel. in north.
(PID.TID 0000.0001) ># Tref =-1.800e+00,-1.800e+00,-1.800e+00,-1.800e+00,-1.800e+00,
(PID.TID 0000.0001) >#	-1.800e+00,-1.800e+00,-1.800e+00,-1.800e+00,-1.800e+00,
(PID.TID 0000.0001) >#	-1.800e+00,-1.800e+00,-1.800e+00,-1.800e+00,-1.800e+00,
(PID.TID 0000.0001) >#	-1.800e+00,-1.800e+00,-1.800e+00,-1.800e+00,-1.800e+00,
(PID.TID 0000.0001) >#	-1.800e+00,-1.800e+00,-1.800e+00,-1.800e+00,-1.800e+00,
(PID.TID 0000.0001) >#	-1.800e+00,-1.800e+00,-1.800e+00,-1.692e+00,-1.477e+00,
(PID.TID 0000.0001) >#	-1.262e+00,-1.046e+00,-8.308e-01,-6.154e-01,-4.000e-01,
(PID.TID 0000.0001) >#	-1.846e-01,3.077e-02,2.462e-01,4.615e-01,6.769e-01,
(PID.TID 0000.0001) >#	8.923e-01,1.000e+00,1.000e+00,1.000e+00,1.000e+00,
(PID.TID 0000.0001) >#	1.000e+00,1.000e+00,1.000e+00,1.000e+00,1.000e+00,
(PID.TID 0000.0001) ># Thermocline from 300m to 500m (same as rel in north).
(PID.TID 0000.0001) ># Tref = -1.800e+00,-1.800e+00,-1.800e+00,-1.800e+00,-1.800e+00,
(PID.TID 0000.0001) >#	-1.800e+00,-1.800e+00,-1.800e+00,-1.800e+00,-1.800e+00,
(PID.TID 0000.0001) >#	-1.800e+00,-1.800e+00,-1.800e+00,-1.800e+00,-1.800e+00,
(PID.TID 0000.0001) >#	-1.660e+00,-1.380e+00,-1.100e+00,-8.200e-01,-5.400e-01,
(PID.TID 0000.0001) >#	-2.600e-01,2.000e-02,3.000e-01,5.800e-01,8.600e-01,
(PID.TID 0000.0001) >#	1.000e+00,1.000e+00,1.000e+00,1.000e+00,1.000e+00,
(PID.TID 0000.0001) >#	1.000e+00,1.000e+00,1.000e+00,1.000e+00,1.000e+00,
(PID.TID 0000.0001) >#	1.000e+00,1.000e+00,1.000e+00,1.000e+00,1.000e+00,
(PID.TID 0000.0001) >#	1.000e+00,1.000e+00,1.000e+00,1.000e+00,1.000e+00,
(PID.TID 0000.0001) >#	1.000e+00,1.000e+00,1.000e+00,1.000e+00,1.000e+00,
(PID.TID 0000.0001) ># Thermocline from 500m to 700m
(PID.TID 0000.0001) ># Tref = -1.800e+00,-1.800e+00,-1.800e+00,-1.800e+00,-1.800e+00,
(PID.TID 0000.0001) >#        -1.800e+00,-1.800e+00,-1.800e+00,-1.800e+00,-1.800e+00,
(PID.TID 0000.0001) >#       -1.800e+00,-1.800e+00,-1.800e+00,-1.800e+00,-1.800e+00,
(PID.TID 0000.0001) >#        -1.800e+00,-1.800e+00,-1.800e+00,-1.800e+00,-1.800e+00,
(PID.TID 0000.0001) >#        -1.800e+00,-1.800e+00,-1.800e+00,-1.800e+00,-1.800e+00,
(PID.TID 0000.0001) >#        -1.660e+00,-1.380e+00,-1.100e+00,-8.200e-01,-5.400e-01,
(PID.TID 0000.0001) >#        -2.600e-01,2.000e-02,3.000e-01,5.800e-01,8.600e-01,
(PID.TID 0000.0001) >#        1.000e+00,1.000e+00,1.000e+00,1.000e+00,1.000e+00,
(PID.TID 0000.0001) >#        1.000e+00,1.000e+00,1.000e+00,1.000e+00,1.000e+00,
(PID.TID 0000.0001) >#        1.000e+00,1.000e+00,1.000e+00,1.000e+00,1.000e+00,
(PID.TID 0000.0001) > Tref = -1.8e+00,
(PID.TID 0000.0001) > Sref = 3.35e+01,
(PID.TID 0000.0001) ># Constant salinity beneath surface stratification
(PID.TID 0000.0001) ># Sref = 3.320e+01,3.328e+01,3.335e+01,3.342e+01,3.350e+01,
(PID.TID 0000.0001) >#	3.350e+01,3.350e+01,3.350e+01,3.350e+01,3.350e+01,
(PID.TID 0000.0001) >#        3.350e+01,3.350e+01,3.350e+01,3.350e+01,3.350e+01,
(PID.TID 0000.0001) >#        3.350e+01,3.350e+01,3.350e+01,3.350e+01,3.350e+01,
(PID.TID 0000.0001) >#        3.350e+01,3.350e+01,3.350e+01,3.350e+01,3.350e+01,
(PID.TID 0000.0001) >#        3.350e+01,3.350e+01,3.350e+01,3.350e+01,3.350e+01,
(PID.TID 0000.0001) >#        3.350e+01,3.350e+01,3.350e+01,3.350e+01,3.350e+01,
(PID.TID 0000.0001) >#        3.350e+01,3.350e+01,3.350e+01,3.350e+01,3.350e+01,
(PID.TID 0000.0001) >#        3.350e+01,3.350e+01,3.350e+01,3.350e+01,3.350e+01,
(PID.TID 0000.0001) >#        3.350e+01,3.350e+01,3.350e+01,3.350e+01,3.350e+01,
(PID.TID 0000.0001) ># Sref = 3.350e+01,3.350e+01,3.350e+01,3.350e+01,3.350e+01,
(PID.TID 0000.0001) >#	3.350e+01,3.350e+01,3.350e+01,3.350e+01,3.350e+01,
(PID.TID 0000.0001) >#	3.350e+01,3.350e+01,3.350e+01,3.350e+01,3.350e+01,
(PID.TID 0000.0001) >#	3.355e+01,3.365e+01,3.375e+01,3.385e+01,3.395e+01,
(PID.TID 0000.0001) >#	3.405e+01,3.415e+01,3.425e+01,3.435e+01,3.445e+01,
(PID.TID 0000.0001) >#	3.450e+01,3.450e+01,3.450e+01,3.450e+01,3.450e+01,
(PID.TID 0000.0001) >#	3.450e+01,3.450e+01,3.450e+01,3.450e+01,3.450e+01,
(PID.TID 0000.0001) >#	3.450e+01,3.450e+01,3.450e+01,3.450e+01,3.450e+01,
(PID.TID 0000.0001) >#	3.450e+01,3.450e+01,3.450e+01,3.450e+01,3.450e+01,
(PID.TID 0000.0001) >#	3.450e+01,3.450e+01,3.450e+01,3.450e+01,3.450e+01,
(PID.TID 0000.0001) ># Halocline from 500m to 700m
(PID.TID 0000.0001) ># Sref = 3.350e+01,3.350e+01,3.350e+01,3.350e+01,3.350e+01,
(PID.TID 0000.0001) >#	3.350e+01,3.350e+01,3.350e+01,3.350e+01,3.350e+01,
(PID.TID 0000.0001) >#	3.350e+01,3.350e+01,3.350e+01,3.350e+01,3.350e+01,
(PID.TID 0000.0001) >#        3.350e+01,3.350e+01,3.350e+01,3.350e+01,3.350e+01,
(PID.TID 0000.0001) >#        3.350e+01,3.350e+01,3.350e+01,3.350e+01,3.350e+01,
(PID.TID 0000.0001) >#        3.355e+01,3.365e+01,3.375e+01,3.385e+01,3.395e+01,
(PID.TID 0000.0001) >#        3.405e+01,3.415e+01,3.425e+01,3.435e+01,3.445e+01,
(PID.TID 0000.0001) >#        3.450e+01,3.450e+01,3.450e+01,3.450e+01,3.450e+01,
(PID.TID 0000.0001) >#        3.450e+01,3.450e+01,3.450e+01,3.450e+01,3.450e+01,
(PID.TID 0000.0001) >#        3.450e+01,3.450e+01,3.450e+01,3.450e+01,3.450e+01,
(PID.TID 0000.0001) ># Sref = 3.35e+01,
(PID.TID 0000.0001) >## constant values
(PID.TID 0000.0001) ># Tref=50*2.0e+00,
(PID.TID 0000.0001) ># Sref=50*34.0e+00,
(PID.TID 0000.0001) ># viscAz=1.E-3,
(PID.TID 0000.0001) ># viscAh=50.0,
(PID.TID 0000.0001) ># diffKhT=10.0,
(PID.TID 0000.0001) ># diffKzT=1.E-4,
(PID.TID 0000.0001) ># diffKhS=10.0,
(PID.TID 0000.0001) ># diffKzS=1.E-4,
(PID.TID 0000.0001) > viscAz=1.E-3,
(PID.TID 0000.0001) > viscAh=10,
(PID.TID 0000.0001) > viscA4Grid=0.1,
(PID.TID 0000.0001) > diffKhT=0.,
(PID.TID 0000.0001) > diffKzT=1.e-5,
(PID.TID 0000.0001) > diffKhS=0.,
(PID.TID 0000.0001) > diffKzS=1.e-5,
(PID.TID 0000.0001) > bottomDragQuadratic=2.5E-3,
(PID.TID 0000.0001) >#
(PID.TID 0000.0001) ># eosType='JMD95Z',
(PID.TID 0000.0001) > eosType='LINEAR',
(PID.TID 0000.0001) > rhoNil=1030.0,
(PID.TID 0000.0001) > tAlpha=3.90E-5
(PID.TID 0000.0001) > sBeta =7.41E-4,
(PID.TID 0000.0001) ># tAlpha=3.87E-5
(PID.TID 0000.0001) ># sBeta =7.86E-4,
(PID.TID 0000.0001) > HeatCapacity_cp = 3974.0,
(PID.TID 0000.0001) > rhoConst=1030.,
(PID.TID 0000.0001) > gravity=9.81,
(PID.TID 0000.0001) > convertFW2Salt = -1,
(PID.TID 0000.0001) >#
(PID.TID 0000.0001) > selectCoriMap=1,
(PID.TID 0000.0001) > f0=-1.4e-4,
(PID.TID 0000.0001) > beta=0.0,
(PID.TID 0000.0001) ># beta=6.42e-12,
(PID.TID 0000.0001) > no_slip_sides=.FALSE.,
(PID.TID 0000.0001) > no_slip_bottom=.FALSE.,
(PID.TID 0000.0001) > rigidLid=.FALSE.,
(PID.TID 0000.0001) > implicitFreeSurface=.TRUE.,
(PID.TID 0000.0001) > nonlinFreeSurf=4,
(PID.TID 0000.0001) > exactConserv=.TRUE.,
(PID.TID 0000.0001) > useCDScheme = .FALSE.,
(PID.TID 0000.0001) > nonHydrostatic=.FALSE.,
(PID.TID 0000.0001) > hFacMin=0.10,
(PID.TID 0000.0001) > hFacInf=0.05,
(PID.TID 0000.0001) > staggerTimeStep = .TRUE.,
(PID.TID 0000.0001) > tempAdvScheme = 33,
(PID.TID 0000.0001) > saltAdvScheme = 33,
(PID.TID 0000.0001) > useSingleCPUio = .TRUE.,
(PID.TID 0000.0001) > readBinaryPrec=64,
(PID.TID 0000.0001) > debugLevel=-1,
(PID.TID 0000.0001) ># momStepping = .FALSE.,
(PID.TID 0000.0001) > /
(PID.TID 0000.0001) >
(PID.TID 0000.0001) ># Elliptic solver parameters
(PID.TID 0000.0001) > &PARM02
(PID.TID 0000.0001) > cg2dMaxIters=1000,
(PID.TID 0000.0001) > cg2dTargetResidual=1.E-13,
(PID.TID 0000.0001) > cg3dMaxIters=400,
(PID.TID 0000.0001) > cg3dTargetResidual=1.E-13,
(PID.TID 0000.0001) > /
(PID.TID 0000.0001) >
(PID.TID 0000.0001) ># Time stepping paramaters
(PID.TID 0000.0001) > &PARM03
(PID.TID 0000.0001) >#
(PID.TID 0000.0001) > niter0=0,
(PID.TID 0000.0001) ># just a few timesteps for testing
(PID.TID 0000.0001) >#endTime=3000.0,
(PID.TID 0000.0001) ># 1 day
(PID.TID 0000.0001) ># endTime=86400.0,
(PID.TID 0000.0001) ># 5 days
(PID.TID 0000.0001) ># endTime=432000.0,
(PID.TID 0000.0001) ># 10 days
(PID.TID 0000.0001) ># endTime=864000.0,
(PID.TID 0000.0001) ># 30 days
(PID.TID 0000.0001) >#endTime=2592000.0,
(PID.TID 0000.0001) ># 60 days
(PID.TID 0000.0001) > endTime=5184000.0,
(PID.TID 0000.0001) ># 180 days
(PID.TID 0000.0001) ># endTime=15552000.0,
(PID.TID 0000.0001) ># 360 days
(PID.TID 0000.0001) ># endTime=31104000.0,
(PID.TID 0000.0001) ># 2*360 days
(PID.TID 0000.0001) ># endTime=62208000.0,
(PID.TID 0000.0001) ># 5*360 days
(PID.TID 0000.0001) ># endTime=155520000.0,
(PID.TID 0000.0001) ># 10*360 days
(PID.TID 0000.0001) ># endTime=311040000.0,
(PID.TID 0000.0001) ># 20*360 days
(PID.TID 0000.0001) ># endTime=622080000.0,
(PID.TID 0000.0001) ># 60*360 days
(PID.TID 0000.0001) ># endTime=1866240000.0,
(PID.TID 0000.0001) >#
(PID.TID 0000.0001) > deltaT=300.0,
(PID.TID 0000.0001) > abEps=0.1,
(PID.TID 0000.0001) > cAdjFreq = -1.,
(PID.TID 0000.0001) ># tauCD = 400000.,
(PID.TID 0000.0001) >#
(PID.TID 0000.0001) > pChkptFreq=0.0,
(PID.TID 0000.0001) > pickupStrictlyMatch=.TRUE.,
(PID.TID 0000.0001) ># pickupSuff='ckptA',
(PID.TID 0000.0001) ># 1 day
(PID.TID 0000.0001) ># chkptFreq=86400.0,
(PID.TID 0000.0001) ># 5 days
(PID.TID 0000.0001) >#  chkptFreq=432000.0
(PID.TID 0000.0001) ># 30 days
(PID.TID 0000.0001) > chkptFreq=2592000.0,
(PID.TID 0000.0001) >#
(PID.TID 0000.0001) > dumpFreq=0.0,
(PID.TID 0000.0001) > dumpInitAndLast=.TRUE.,
(PID.TID 0000.0001) > taveFreq=0.0,
(PID.TID 0000.0001) ># delta T
(PID.TID 0000.0001) ># adjDumpFreq=86400.,
(PID.TID 0000.0001) > adjDumpFreq=172800.,
(PID.TID 0000.0001) > adjMonitorFreq=7200.,
(PID.TID 0000.0001) > monitorFreq=86400.,
(PID.TID 0000.0001) ># 30 days
(PID.TID 0000.0001) ># monitorFreq=2592000.,
(PID.TID 0000.0001) ># 360 days
(PID.TID 0000.0001) >#monitorFreq=31104000.0,
(PID.TID 0000.0001) > monitorSelect=2,
(PID.TID 0000.0001) > /
(PID.TID 0000.0001) >
(PID.TID 0000.0001) ># Gridding parameters
(PID.TID 0000.0001) > &PARM04
(PID.TID 0000.0001) > usingCartesianGrid=.TRUE.,
(PID.TID 0000.0001) > usingSphericalPolarGrid=.FALSE.,
(PID.TID 0000.0001) > delX=240*2500.,
(PID.TID 0000.0001) > delY=200*2500.,
(PID.TID 0000.0001) > delZ=50*20.0,
(PID.TID 0000.0001) > /
(PID.TID 0000.0001) >
(PID.TID 0000.0001) ># Input datasets
(PID.TID 0000.0001) > &PARM05
(PID.TID 0000.0001) > bathyFile='bathyS.bin',
(PID.TID 0000.0001) > zonalWindFile='taux_05cos.bin',
(PID.TID 0000.0001) > /
(PID.TID 0000.0001) 
(PID.TID 0000.0001)  INI_PARMS ; starts to read PARM01
(PID.TID 0000.0001)  INI_PARMS ; read PARM01 : OK
(PID.TID 0000.0001)  INI_PARMS ; starts to read PARM02
(PID.TID 0000.0001)  INI_PARMS ; read PARM02 : OK
(PID.TID 0000.0001)  INI_PARMS ; starts to read PARM03
(PID.TID 0000.0001)  INI_PARMS ; read PARM03 : OK
(PID.TID 0000.0001)  INI_PARMS ; starts to read PARM04
(PID.TID 0000.0001)  INI_PARMS ; read PARM04 : OK
(PID.TID 0000.0001)  INI_PARMS ; starts to read PARM05
(PID.TID 0000.0001)  INI_PARMS ; read PARM05 : OK
(PID.TID 0000.0001)  INI_PARMS: finished reading file "data"
(PID.TID 0000.0001)  PACKAGES_BOOT: opening data.pkg
(PID.TID 0000.0001)  OPEN_COPY_DATA_FILE: opening file data.pkg
(PID.TID 0000.0001) #/ =======================================================
(PID.TID 0000.0001) #/ Parameter file "data.pkg"
(PID.TID 0000.0001) #/ =======================================================
(PID.TID 0000.0001) ># Packages
(PID.TID 0000.0001) > &PACKAGES
(PID.TID 0000.0001) > useAUTODIFF     = .TRUE.,
(PID.TID 0000.0001) > useECCO         = .TRUE.,
(PID.TID 0000.0001) > useCTRL         = .TRUE.,
(PID.TID 0000.0001) > useDiagnostics  = .FALSE.,
(PID.TID 0000.0001) > useRBCs         = .FALSE.,
(PID.TID 0000.0001) > useShelfIce     = .FALSE.,
(PID.TID 0000.0001) > /
(PID.TID 0000.0001) 
(PID.TID 0000.0001)  PACKAGES_BOOT: finished reading data.pkg
(PID.TID 0000.0001)  PACKAGES_BOOT: On#Off package Summary
 --------  pkgs with a standard "usePKG" On#Off switch in "data.pkg":  --------
 pkg#cal                  compiled   and   used ( useCAL                   = T )
 pkg#autodiff             compiled   and   used ( useAUTODIFF              = T )
 pkg#grdchk               compiled but not used ( useGrdchk                = F )
 pkg#ecco                 compiled   and   used ( useECCO                  = T )
 pkg#ctrl                 compiled   and   used ( useCTRL                  = T )
 pkg#rbcs                 compiled but not used ( useRBCS                  = F )
 pkg#shelfice             compiled but not used ( useShelfIce              = F )
 pkg#diagnostics          compiled but not used ( useDiagnostics           = F )
 -------- pkgs without standard "usePKG" On#Off switch in "data.pkg":  --------
 pkg#generic_advdiff      compiled   and   used ( useGAD                   = T )
 pkg#mom_common           compiled   and   used ( momStepping              = T )
 pkg#mom_vecinv           compiled but not used ( +vectorInvariantMomentum = F )
 pkg#mom_fluxform         compiled   and   used ( & not vectorInvariantMom = T )
 pkg#cd_code              compiled but not used ( useCDscheme              = F )
 pkg#monitor              compiled   and   used ( monitorFreq > 0.         = T )
 pkg#timeave              compiled but not used ( taveFreq > 0.            = F )
 pkg#debug                compiled but not used ( debugMode                = F )
 pkg#rw                   compiled   and   used
 pkg#mdsio                compiled   and   used
 pkg#autodiff             compiled   and   used
 pkg#cost                 compiled   and   used
(PID.TID 0000.0001)  PACKAGES_BOOT: End of package Summary
(PID.TID 0000.0001) 
(PID.TID 0000.0001) CAL_READPARMS: opening data.cal
(PID.TID 0000.0001)  OPEN_COPY_DATA_FILE: opening file data.cal
(PID.TID 0000.0001) #/ =======================================================
(PID.TID 0000.0001) #/ Parameter file "data.cal"
(PID.TID 0000.0001) #/ =======================================================
(PID.TID 0000.0001) >#
(PID.TID 0000.0001) ># *******************
(PID.TID 0000.0001) ># Calendar Parameters
(PID.TID 0000.0001) ># *******************
(PID.TID 0000.0001) > &CAL_NML
(PID.TID 0000.0001) > TheCalendar='gregorian',
(PID.TID 0000.0001) > calendarDumps=.TRUE.,
(PID.TID 0000.0001) ># TheCalendar='model',
(PID.TID 0000.0001) > startDate_1=19920101
(PID.TID 0000.0001) > startDate_2=120000,
(PID.TID 0000.0001) > /
(PID.TID 0000.0001) 
(PID.TID 0000.0001) CAL_READPARMS: finished reading data.cal
(PID.TID 0000.0001) AUTODIFF_READPARMS: opening data.autodiff
(PID.TID 0000.0001)  OPEN_COPY_DATA_FILE: opening file data.autodiff
(PID.TID 0000.0001) #/ =======================================================
(PID.TID 0000.0001) #/ Parameter file "data.autodiff"
(PID.TID 0000.0001) #/ =======================================================
(PID.TID 0000.0001) ># =========================
(PID.TID 0000.0001) ># pkg AUTODIFF parameters :
(PID.TID 0000.0001) ># =========================
(PID.TID 0000.0001) >#  inAdExact :: get an exact adjoint (no approximation) (def=.True.)
(PID.TID 0000.0001) >#
(PID.TID 0000.0001) > &AUTODIFF_PARM01
(PID.TID 0000.0001) ># inAdExact = .FALSE.,
(PID.TID 0000.0001) > useSEAICEinAdMode = .FALSE.,
(PID.TID 0000.0001) ># useKPPinAdMode = .FALSE.,
(PID.TID 0000.0001) ># useGMRediInAdMode = .FALSE.,
(PID.TID 0000.0001) >#useGGL90inAdMode = .FALSE.,
(PID.TID 0000.0001) >#useSALT_PLUMEinAdMode = .FALSE.,
(PID.TID 0000.0001) > viscFacInAd = 2.,
(PID.TID 0000.0001) > /
(PID.TID 0000.0001) 
(PID.TID 0000.0001) AUTODIFF_READPARMS: finished reading data.autodiff
(PID.TID 0000.0001) #/ ===================================
(PID.TID 0000.0001) #/ AUTODIFF parameters :
(PID.TID 0000.0001) #/ ===================================
(PID.TID 0000.0001) inAdExact = #* get an exact adjoint (no approximation) */
(PID.TID 0000.0001)                   T
(PID.TID 0000.0001)     ;
(PID.TID 0000.0001) useKPPinAdMode = #* use KPP in adjoint mode */
(PID.TID 0000.0001)                   F
(PID.TID 0000.0001)     ;
(PID.TID 0000.0001) useGMRediInAdMode = #* use GMRedi in adjoint mode */
(PID.TID 0000.0001)                   F
(PID.TID 0000.0001)     ;
(PID.TID 0000.0001) useSEAICEinAdMode = #* use SEAICE in adjoint mode */
(PID.TID 0000.0001)                   F
(PID.TID 0000.0001)     ;
(PID.TID 0000.0001) useGGL90inAdMode = #* use GGL90 in adjoint mode */
(PID.TID 0000.0001)                   F
(PID.TID 0000.0001)     ;
(PID.TID 0000.0001) useSALT_PLUMEinAdMode = #* use SALT_PLUME in adjoint mode */
(PID.TID 0000.0001)                   F
(PID.TID 0000.0001)     ;
(PID.TID 0000.0001) dumpAdVarExch = #* control adexch before dumpinp */
(PID.TID 0000.0001)                       2
(PID.TID 0000.0001)     ;
(PID.TID 0000.0001) mon_AdVarExch = #* control adexch before monitor */
(PID.TID 0000.0001)                       2
(PID.TID 0000.0001)     ;
(PID.TID 0000.0001) viscFacInAd = #* viscosity factor for adjoint */
(PID.TID 0000.0001)                 2.000000000000000E+00
(PID.TID 0000.0001)     ;
(PID.TID 0000.0001) 
(PID.TID 0000.0001) OPTIM_READPARMS: opening data.optim
(PID.TID 0000.0001)  OPEN_COPY_DATA_FILE: opening file data.optim
(PID.TID 0000.0001) #/ =======================================================
(PID.TID 0000.0001) #/ Parameter file "data.optim"
(PID.TID 0000.0001) #/ =======================================================
(PID.TID 0000.0001) >#
(PID.TID 0000.0001) ># ********************************
(PID.TID 0000.0001) ># Off-line optimization parameters
(PID.TID 0000.0001) ># ********************************
(PID.TID 0000.0001) > &OPTIM
(PID.TID 0000.0001) > optimcycle=0,
(PID.TID 0000.0001) > /
(PID.TID 0000.0001) 
(PID.TID 0000.0001) OPTIM_READPARMS: finished reading data.optim
(PID.TID 0000.0001) CTRL_READPARMS: opening data.ctrl
(PID.TID 0000.0001)  OPEN_COPY_DATA_FILE: opening file data.ctrl
(PID.TID 0000.0001) #/ =======================================================
(PID.TID 0000.0001) #/ Parameter file "data.ctrl"
(PID.TID 0000.0001) #/ =======================================================
(PID.TID 0000.0001) ># *********************
(PID.TID 0000.0001) ># ECCO controlvariables
(PID.TID 0000.0001) ># *********************
(PID.TID 0000.0001) > &CTRL_NML
(PID.TID 0000.0001) >#ctrlUseGen=.TRUE.,
(PID.TID 0000.0001) > /
(PID.TID 0000.0001) ># *********************
(PID.TID 0000.0001) ># names for ctrl_pack/unpack
(PID.TID 0000.0001) ># *********************
(PID.TID 0000.0001) > &CTRL_PACKNAMES
(PID.TID 0000.0001) > /
(PID.TID 0000.0001) ># *********************
(PID.TID 0000.0001) ># names for CTRL_GENARR, CTRL_GENTIM
(PID.TID 0000.0001) ># *********************
(PID.TID 0000.0001) > &CTRL_NML_GENARR
(PID.TID 0000.0001) >#
(PID.TID 0000.0001) > xx_genarr3d_file(1)   = 'xx_theta',
(PID.TID 0000.0001) > xx_genarr3d_weight(1) = 'ones3D.bin',
(PID.TID 0000.0001) >#
(PID.TID 0000.0001) > xx_genarr3d_file(2)   = 'xx_uvel',
(PID.TID 0000.0001) > xx_genarr3d_weight(2) = 'ones3D.bin',
(PID.TID 0000.0001) >#
(PID.TID 0000.0001) > xx_genarr3d_file(3)   = 'xx_vvel',
(PID.TID 0000.0001) > xx_genarr3d_weight(3) = 'ones3D.bin',
(PID.TID 0000.0001) >#
(PID.TID 0000.0001) > xx_genarr2d_file(1) = 'xx_bottomdrag',
(PID.TID 0000.0001) > xx_genarr2d_weight(1) = 'ones2D.bin',
(PID.TID 0000.0001) >#
(PID.TID 0000.0001) > xx_gentim2d_file(1) = 'xx_tauu',
(PID.TID 0000.0001) > xx_gentim2d_weight(1) = 'ones2D.bin',
(PID.TID 0000.0001) >#
(PID.TID 0000.0001) > xx_gentim2d_file(2) = 'xx_tauv',
(PID.TID 0000.0001) > xx_gentim2d_weight(2) = 'ones2D.bin',
(PID.TID 0000.0001) >#
(PID.TID 0000.0001) > /
(PID.TID 0000.0001) 
(PID.TID 0000.0001) CTRL_READPARMS: finished reading data.ctrl
(PID.TID 0000.0001) COST_READPARMS: opening data.cost
(PID.TID 0000.0001)  OPEN_COPY_DATA_FILE: opening file data.cost
(PID.TID 0000.0001) #/ =======================================================
(PID.TID 0000.0001) #/ Parameter file "data.cost"
(PID.TID 0000.0001) #/ =======================================================
(PID.TID 0000.0001) >#
(PID.TID 0000.0001) >#
(PID.TID 0000.0001) ># ******************
(PID.TID 0000.0001) ># cost function
(PID.TID 0000.0001) ># ******************
(PID.TID 0000.0001) > &COST_NML
(PID.TID 0000.0001) > /
(PID.TID 0000.0001) 
(PID.TID 0000.0001) COST_READPARMS: finished reading data.cost
(PID.TID 0000.0001) ECCO_READPARMS: opening data.ecco
(PID.TID 0000.0001)  OPEN_COPY_DATA_FILE: opening file data.ecco
(PID.TID 0000.0001) #/ =======================================================
(PID.TID 0000.0001) #/ Parameter file "data.ecco"
(PID.TID 0000.0001) #/ =======================================================
(PID.TID 0000.0001) ># *******************
(PID.TID 0000.0001) ># ECCO cost functions
(PID.TID 0000.0001) ># *******************
(PID.TID 0000.0001) > &ECCO_COST_NML
(PID.TID 0000.0001) > /
(PID.TID 0000.0001) ># ***************************
(PID.TID 0000.0001) ># ECCO generic cost functions
(PID.TID 0000.0001) ># ***************************
(PID.TID 0000.0001) > &ECCO_GENCOST_NML
(PID.TID 0000.0001) > gencost_name(1) = 'onShelfHeat',
(PID.TID 0000.0001) > gencost_barfile(1) = 'm_boxmean_eta',
(PID.TID 0000.0001) > gencost_avgperiod(1) = 'day',
(PID.TID 0000.0001) > gencost_itracer(1) = 1,
(PID.TID 0000.0001) > gencost_msk_is3d(1)=.FALSE.,
(PID.TID 0000.0001) > gencost_outputlevel(1) = 1,
(PID.TID 0000.0001) ># gencost_mask(1) = 'onShelfMask2D',
(PID.TID 0000.0001) ># gencost_mask(1) = 'ones2D',
(PID.TID 0000.0001) > gencost_mask(1) = 'maskFile',
(PID.TID 0000.0001) > mult_gencost(1) = 1.0D9,
(PID.TID 0000.0001) >#
(PID.TID 0000.0001) > /
(PID.TID 0000.0001) >#
(PID.TID 0000.0001) 
(PID.TID 0000.0001) ECCO_READPARMS: finished reading #1: ecco_cost_nml
(PID.TID 0000.0001) ECCO_READPARMS: finished reading #2: ecco_gencost_nml
(PID.TID 0000.0001) gencost k_boxmean#horflux=  1 onShelfHeat:     T
(PID.TID 0000.0001) ECCO_READPARMS: done
(PID.TID 0000.0001) SET_PARMS: done
(PID.TID 0000.0001) Enter INI_VERTICAL_GRID: setInterFDr=    T ; setCenterDr=    F
(PID.TID 0000.0001) %MON XC_max                       =   5.9875000000000E+05
(PID.TID 0000.0001) %MON XC_min                       =   1.2500000000000E+03
(PID.TID 0000.0001) %MON XC_mean                      =   3.0000000000000E+05
(PID.TID 0000.0001) %MON XC_sd                        =   1.7320357723404E+05
(PID.TID 0000.0001) %MON XG_max                       =   5.9750000000000E+05
(PID.TID 0000.0001) %MON XG_min                       =   0.0000000000000E+00
(PID.TID 0000.0001) %MON XG_mean                      =   2.9875000000000E+05
(PID.TID 0000.0001) %MON XG_sd                        =   1.7320357723404E+05
(PID.TID 0000.0001) %MON DXC_max                      =   2.5000000000000E+03
(PID.TID 0000.0001) %MON DXC_min                      =   2.5000000000000E+03
(PID.TID 0000.0001) %MON DXC_mean                     =   2.5000000000000E+03
(PID.TID 0000.0001) %MON DXC_sd                       =   0.0000000000000E+00
(PID.TID 0000.0001) %MON DXF_max                      =   2.5000000000000E+03
(PID.TID 0000.0001) %MON DXF_min                      =   2.5000000000000E+03
(PID.TID 0000.0001) %MON DXF_mean                     =   2.5000000000000E+03
(PID.TID 0000.0001) %MON DXF_sd                       =   0.0000000000000E+00
(PID.TID 0000.0001) %MON DXG_max                      =   2.5000000000000E+03
(PID.TID 0000.0001) %MON DXG_min                      =   2.5000000000000E+03
(PID.TID 0000.0001) %MON DXG_mean                     =   2.5000000000000E+03
(PID.TID 0000.0001) %MON DXG_sd                       =   0.0000000000000E+00
(PID.TID 0000.0001) %MON DXV_max                      =   2.5000000000000E+03
(PID.TID 0000.0001) %MON DXV_min                      =   2.5000000000000E+03
(PID.TID 0000.0001) %MON DXV_mean                     =   2.5000000000000E+03
(PID.TID 0000.0001) %MON DXV_sd                       =   0.0000000000000E+00
(PID.TID 0000.0001) %MON YC_max                       =   4.9875000000000E+05
(PID.TID 0000.0001) %MON YC_min                       =   1.2500000000000E+03
(PID.TID 0000.0001) %MON YC_mean                      =   2.5000000000000E+05
(PID.TID 0000.0001) %MON YC_sd                        =   1.4433576306654E+05
(PID.TID 0000.0001) %MON YG_max                       =   4.9750000000000E+05
(PID.TID 0000.0001) %MON YG_min                       =   0.0000000000000E+00
(PID.TID 0000.0001) %MON YG_mean                      =   2.4875000000000E+05
(PID.TID 0000.0001) %MON YG_sd                        =   1.4433576306654E+05
(PID.TID 0000.0001) %MON DYC_max                      =   2.5000000000000E+03
(PID.TID 0000.0001) %MON DYC_min                      =   2.5000000000000E+03
(PID.TID 0000.0001) %MON DYC_mean                     =   2.5000000000000E+03
(PID.TID 0000.0001) %MON DYC_sd                       =   0.0000000000000E+00
(PID.TID 0000.0001) %MON DYF_max                      =   2.5000000000000E+03
(PID.TID 0000.0001) %MON DYF_min                      =   2.5000000000000E+03
(PID.TID 0000.0001) %MON DYF_mean                     =   2.5000000000000E+03
(PID.TID 0000.0001) %MON DYF_sd                       =   0.0000000000000E+00
(PID.TID 0000.0001) %MON DYG_max                      =   2.5000000000000E+03
(PID.TID 0000.0001) %MON DYG_min                      =   2.5000000000000E+03
(PID.TID 0000.0001) %MON DYG_mean                     =   2.5000000000000E+03
(PID.TID 0000.0001) %MON DYG_sd                       =   0.0000000000000E+00
(PID.TID 0000.0001) %MON DYU_max                      =   2.5000000000000E+03
(PID.TID 0000.0001) %MON DYU_min                      =   2.5000000000000E+03
(PID.TID 0000.0001) %MON DYU_mean                     =   2.5000000000000E+03
(PID.TID 0000.0001) %MON DYU_sd                       =   0.0000000000000E+00
(PID.TID 0000.0001) %MON RA_max                       =   6.2500000000000E+06
(PID.TID 0000.0001) %MON RA_min                       =   6.2500000000000E+06
(PID.TID 0000.0001) %MON RA_mean                      =   6.2500000000000E+06
(PID.TID 0000.0001) %MON RA_sd                        =   0.0000000000000E+00
(PID.TID 0000.0001) %MON RAW_max                      =   6.2500000000000E+06
(PID.TID 0000.0001) %MON RAW_min                      =   6.2500000000000E+06
(PID.TID 0000.0001) %MON RAW_mean                     =   6.2500000000000E+06
(PID.TID 0000.0001) %MON RAW_sd                       =   0.0000000000000E+00
(PID.TID 0000.0001) %MON RAS_max                      =   6.2500000000000E+06
(PID.TID 0000.0001) %MON RAS_min                      =   6.2500000000000E+06
(PID.TID 0000.0001) %MON RAS_mean                     =   6.2500000000000E+06
(PID.TID 0000.0001) %MON RAS_sd                       =   0.0000000000000E+00
(PID.TID 0000.0001) %MON RAZ_max                      =   6.2500000000000E+06
(PID.TID 0000.0001) %MON RAZ_min                      =   6.2500000000000E+06
(PID.TID 0000.0001) %MON RAZ_mean                     =   6.2500000000000E+06
(PID.TID 0000.0001) %MON RAZ_sd                       =   0.0000000000000E+00
(PID.TID 0000.0001) %MON AngleCS_max                  =   1.0000000000000E+00
(PID.TID 0000.0001) %MON AngleCS_min                  =   1.0000000000000E+00
(PID.TID 0000.0001) %MON AngleCS_mean                 =   1.0000000000000E+00
(PID.TID 0000.0001) %MON AngleCS_sd                   =   0.0000000000000E+00
(PID.TID 0000.0001) %MON AngleSN_max                  =   0.0000000000000E+00
(PID.TID 0000.0001) %MON AngleSN_min                  =   0.0000000000000E+00
(PID.TID 0000.0001) %MON AngleSN_mean                 =   0.0000000000000E+00
(PID.TID 0000.0001) %MON AngleSN_sd                   =   0.0000000000000E+00
(PID.TID 0000.0001) 
(PID.TID 0000.0001) #/ =======================================================
(PID.TID 0000.0001) #/ Calendar configuration >>> START <<<
(PID.TID 0000.0001) #/ =======================================================
(PID.TID 0000.0001) 
(PID.TID 0000.0001) modelstart = #* Start time of the model integration [s] */
(PID.TID 0000.0001)                 0.000000000000000E+00
(PID.TID 0000.0001)     ;
(PID.TID 0000.0001) modelend  = #* End time of the model integration [s] */
(PID.TID 0000.0001)                 5.184000000000000E+06
(PID.TID 0000.0001)     ;
(PID.TID 0000.0001) modelStep = #* Time interval for a model forward step [s] */
(PID.TID 0000.0001)                 3.000000000000000E+02
(PID.TID 0000.0001)     ;
(PID.TID 0000.0001) usingGregorianCalendar= #* Calendar Type: Gregorian Calendar */
(PID.TID 0000.0001)                   T
(PID.TID 0000.0001)     ;
(PID.TID 0000.0001) usingJulianCalendar = #* Calendar Type: Julian Calendar */
(PID.TID 0000.0001)                   F
(PID.TID 0000.0001)     ;
(PID.TID 0000.0001) usingNoLeapYearCal  = #* Calendar Type: without Leap Year */
(PID.TID 0000.0001)                   F
(PID.TID 0000.0001)     ;
(PID.TID 0000.0001) usingModelCalendar  = #* Calendar Type: Model Calendar */
(PID.TID 0000.0001)                   F
(PID.TID 0000.0001)     ;
(PID.TID 0000.0001) modelStartDate YYYYMMDD = #* Model start date YYYY-MM-DD */
(PID.TID 0000.0001)                19920101
(PID.TID 0000.0001)     ;
(PID.TID 0000.0001)   modelStartDate HHMMSS = #* Model start date HH-MM-SS  */
(PID.TID 0000.0001)                  120000
(PID.TID 0000.0001)     ;
(PID.TID 0000.0001) modelEndDate   YYYYMMDD = #* Model end date YYYY-MM-DD */
(PID.TID 0000.0001)                19920301
(PID.TID 0000.0001)     ;
(PID.TID 0000.0001)   modelEndDate   HHMMSS = #* Model end date HH-MM-SS  */
(PID.TID 0000.0001)                  120000
(PID.TID 0000.0001)     ;
(PID.TID 0000.0001) intyears = #* Number of calendar years affected by the integration */
(PID.TID 0000.0001)                       1
(PID.TID 0000.0001)     ;
(PID.TID 0000.0001) intmonths= #* Number of calendar months affected by the integration */
(PID.TID 0000.0001)                       3
(PID.TID 0000.0001)     ;
(PID.TID 0000.0001) intdays = #* Number of calendar days affected by the integration */
(PID.TID 0000.0001)                      61
(PID.TID 0000.0001)     ;
(PID.TID 0000.0001) modelIter0 = #* Base timestep number  */
(PID.TID 0000.0001)                       0
(PID.TID 0000.0001)     ;
(PID.TID 0000.0001) modelIterEnd = #* Final timestep number  */
(PID.TID 0000.0001)                   17280
(PID.TID 0000.0001)     ;
(PID.TID 0000.0001) modelIntSteps= #* Number of model timesteps  */
(PID.TID 0000.0001)                   17280
(PID.TID 0000.0001)     ;
(PID.TID 0000.0001) 
(PID.TID 0000.0001) #/ =======================================================
(PID.TID 0000.0001) #/ Calendar configuration  >>> END <<<
(PID.TID 0000.0001) #/ =======================================================
(PID.TID 0000.0001) 
(PID.TID 0000.0001) GAD_INIT_FIXED: GAD_OlMinSize=  2  0  1
(PID.TID 0000.0001) 
(PID.TID 0000.0001) #/ ===================================
(PID.TID 0000.0001) #/ GAD parameters :
(PID.TID 0000.0001) #/ ===================================
(PID.TID 0000.0001) tempAdvScheme =   #* Temp. Horiz.Advection scheme selector */
(PID.TID 0000.0001)                      33
(PID.TID 0000.0001)     ;
(PID.TID 0000.0001) tempVertAdvScheme =   #* Temp. Vert. Advection scheme selector */
(PID.TID 0000.0001)                      33
(PID.TID 0000.0001)     ;
(PID.TID 0000.0001) tempMultiDimAdvec =   #* use Muti-Dim Advec method for Temp */
(PID.TID 0000.0001)                   T
(PID.TID 0000.0001)     ;
(PID.TID 0000.0001) tempSOM_Advection = #* use 2nd Order Moment Advection for Temp */
(PID.TID 0000.0001)                   F
(PID.TID 0000.0001)     ;
(PID.TID 0000.0001) AdamsBashforthGt = #* apply Adams-Bashforth extrapolation on Gt */
(PID.TID 0000.0001)                   F
(PID.TID 0000.0001)     ;
(PID.TID 0000.0001) AdamsBashforth_T = #* apply Adams-Bashforth extrapolation on Temp */
(PID.TID 0000.0001)                   F
(PID.TID 0000.0001)     ;
(PID.TID 0000.0001) saltAdvScheme =   #* Salt. Horiz.advection scheme selector */
(PID.TID 0000.0001)                      33
(PID.TID 0000.0001)     ;
(PID.TID 0000.0001) saltVertAdvScheme =   #* Salt. Vert. Advection scheme selector */
(PID.TID 0000.0001)                      33
(PID.TID 0000.0001)     ;
(PID.TID 0000.0001) saltMultiDimAdvec =   #* use Muti-Dim Advec method for Salt */
(PID.TID 0000.0001)                   T
(PID.TID 0000.0001)     ;
(PID.TID 0000.0001) saltSOM_Advection = #* use 2nd Order Moment Advection for Salt */
(PID.TID 0000.0001)                   F
(PID.TID 0000.0001)     ;
(PID.TID 0000.0001) AdamsBashforthGs = #* apply Adams-Bashforth extrapolation on Gs */
(PID.TID 0000.0001)                   F
(PID.TID 0000.0001)     ;
(PID.TID 0000.0001) AdamsBashforth_S = #* apply Adams-Bashforth extrapolation on Salt */
(PID.TID 0000.0001)                   F
(PID.TID 0000.0001)     ;
(PID.TID 0000.0001) #/ ===================================
(PID.TID 0000.0001) entering boxmean#horflux check,k,using_gencost(k): ,  1    T
(PID.TID 0000.0001) etaday defined by gencost   0
(PID.TID 0000.0001) 
(PID.TID 0000.0001) #/ =======================================================
(PID.TID 0000.0001) #/ ECCO configuration >>> START <<<
(PID.TID 0000.0001) #/ =======================================================
(PID.TID 0000.0001) 
(PID.TID 0000.0001) gencost( 1) = onShelfHeat
(PID.TID 0000.0001) -------------
(PID.TID 0000.0001)   starts and ends at :
(PID.TID 0000.0001)   19920101  120000  2   6
(PID.TID 0000.0001)   19920301  120000  2   3
(PID.TID 0000.0001)   number of records =    61
(PID.TID 0000.0001)  model file = m_boxmean_eta
(PID.TID 0000.0001)  error file =
(PID.TID 0000.0001)  gencost_flag = -3
(PID.TID 0000.0001)  gencost_outputlevel =  1
(PID.TID 0000.0001) 
(PID.TID 0000.0001) 
(PID.TID 0000.0001) 
(PID.TID 0000.0001) #/ =======================================================
(PID.TID 0000.0001) #/ ECCO configuration  >>> END <<<
(PID.TID 0000.0001) #/ =======================================================
(PID.TID 0000.0001) 
(PID.TID 0000.0001) ctrl-wet 1:    nvarlength =            0
(PID.TID 0000.0001) ctrl-wet 2: surface wet C =            0
(PID.TID 0000.0001) ctrl-wet 3: surface wet W =            0
(PID.TID 0000.0001) ctrl-wet 4: surface wet S =            0
(PID.TID 0000.0001) ctrl-wet 4a:surface wet V =            0
(PID.TID 0000.0001) ctrl-wet 5: 3D wet points =            0
(PID.TID 0000.0001) ctrl-wet 6: no recs for i =     1           0
(PID.TID 0000.0001) ctrl-wet 6: no recs for i =     2           0
(PID.TID 0000.0001) ctrl-wet 6: no recs for i =     3           0
(PID.TID 0000.0001) ctrl-wet 6: no recs for i =     4           0
(PID.TID 0000.0001) ctrl-wet 6: no recs for i =     5           0
(PID.TID 0000.0001) ctrl-wet 6: no recs for i =     6           0
(PID.TID 0000.0001) ctrl-wet 6: no recs for i =     7           0
(PID.TID 0000.0001) ctrl-wet 6: no recs for i =     8           0
(PID.TID 0000.0001) ctrl-wet 6: no recs for i =     9           0
(PID.TID 0000.0001) ctrl-wet 6: no recs for i =    10           0
(PID.TID 0000.0001) ctrl-wet 6: no recs for i =    11           0
(PID.TID 0000.0001) ctrl-wet 6: no recs for i =    12           0
(PID.TID 0000.0001) ctrl-wet 6: no recs for i =    13           0
(PID.TID 0000.0001) ctrl-wet 6: no recs for i =    14           0
(PID.TID 0000.0001) ctrl-wet 6: no recs for i =    15           0
(PID.TID 0000.0001) ctrl-wet 6: no recs for i =    16           0
(PID.TID 0000.0001) ctrl-wet 6: no recs for i =    17           0
(PID.TID 0000.0001) ctrl-wet 6: no recs for i =    18           0
(PID.TID 0000.0001) ctrl-wet 6: no recs for i =    19           0
(PID.TID 0000.0001) ctrl-wet 6: no recs for i =    20           0
(PID.TID 0000.0001) ctrl-wet 6: no recs for i =    21           0
(PID.TID 0000.0001) ctrl-wet 6: no recs for i =    22           0
(PID.TID 0000.0001) ctrl-wet 6: no recs for i =    23           0
(PID.TID 0000.0001) ctrl-wet 6: no recs for i =    24           0
(PID.TID 0000.0001) ctrl-wet 6: no recs for i =    25           0
(PID.TID 0000.0001) ctrl-wet 6: no recs for i =    26           0
(PID.TID 0000.0001) ctrl-wet 6: no recs for i =    27           0
(PID.TID 0000.0001) ctrl-wet 6: no recs for i =    28           0
(PID.TID 0000.0001) ctrl-wet 6: no recs for i =    29           0
(PID.TID 0000.0001) ctrl-wet 6: no recs for i =    30           0
(PID.TID 0000.0001) ctrl-wet 6: no recs for i =    31           0
(PID.TID 0000.0001) ctrl-wet 6: no recs for i =    32           0
(PID.TID 0000.0001) ctrl-wet 6: no recs for i =    33           0
(PID.TID 0000.0001) ctrl-wet 6: no recs for i =    34           0
(PID.TID 0000.0001) ctrl-wet 6: no recs for i =    35           0
(PID.TID 0000.0001) ctrl-wet 6: no recs for i =    36           0
(PID.TID 0000.0001) ctrl-wet 6: no recs for i =    37           0
(PID.TID 0000.0001) ctrl-wet 6: no recs for i =    38           0
(PID.TID 0000.0001) ctrl-wet 6: no recs for i =    39           0
(PID.TID 0000.0001) ctrl-wet 6: no recs for i =    40           0
(PID.TID 0000.0001) ctrl-wet 6: no recs for i =    41           0
(PID.TID 0000.0001) ctrl-wet 6: no recs for i =    42           0
(PID.TID 0000.0001) ctrl-wet 6: no recs for i =    43           0
(PID.TID 0000.0001) ctrl-wet 6: no recs for i =    44           0
(PID.TID 0000.0001) ctrl-wet 6: no recs for i =    45           0
(PID.TID 0000.0001) ctrl-wet 6: no recs for i =    46           0
(PID.TID 0000.0001) ctrl-wet 6: no recs for i =    47           0
(PID.TID 0000.0001) ctrl-wet 6: no recs for i =    48           0
(PID.TID 0000.0001) ctrl-wet 6: no recs for i =    49           0
(PID.TID 0000.0001) ctrl-wet 6: no recs for i =    50           0
(PID.TID 0000.0001) ctrl-wet 6: no recs for i =    51           0
(PID.TID 0000.0001) ctrl-wet 6: no recs for i =    52           0
(PID.TID 0000.0001) ctrl-wet 6: no recs for i =    53           0
(PID.TID 0000.0001) ctrl-wet 6: no recs for i =    54           0
(PID.TID 0000.0001) ctrl-wet 6: no recs for i =    55           0
(PID.TID 0000.0001) ctrl-wet 6: no recs for i =    56           0
(PID.TID 0000.0001) ctrl-wet 6: no recs for i =    57           0
(PID.TID 0000.0001) ctrl-wet 6: no recs for i =    58           0
(PID.TID 0000.0001) ctrl-wet 6: no recs for i =    59           0
(PID.TID 0000.0001) ctrl-wet 6: no recs for i =    60           0
(PID.TID 0000.0001) ctrl-wet 6: no recs for i =    61           0
(PID.TID 0000.0001) ctrl-wet 6: no recs for i =    62           0
(PID.TID 0000.0001) ctrl-wet 6: no recs for i =    63           0
(PID.TID 0000.0001) ctrl-wet 6: no recs for i =    64           0
(PID.TID 0000.0001) ctrl-wet 6: no recs for i =    65           0
(PID.TID 0000.0001) ctrl-wet 6: no recs for i =    66           0
(PID.TID 0000.0001) ctrl-wet 6: no recs for i =    67           0
(PID.TID 0000.0001) ctrl-wet 6: no recs for i =    68           0
(PID.TID 0000.0001) ctrl-wet 6: no recs for i =    69           0
(PID.TID 0000.0001) ctrl-wet 6: no recs for i =    70           0
(PID.TID 0000.0001) ctrl-wet 6: no recs for i =    71           0
(PID.TID 0000.0001) ctrl-wet 6: no recs for i =    72           0
(PID.TID 0000.0001) ctrl-wet 6: no recs for i =    73           0
(PID.TID 0000.0001) ctrl-wet 6: no recs for i =    74           0
(PID.TID 0000.0001) ctrl-wet 6: no recs for i =    75           0
(PID.TID 0000.0001) ctrl-wet 6: no recs for i =    76           0
(PID.TID 0000.0001) ctrl-wet 6: no recs for i =    77           0
(PID.TID 0000.0001) ctrl-wet 6: no recs for i =    78           0
(PID.TID 0000.0001) ctrl-wet 6: no recs for i =    79           0
(PID.TID 0000.0001) ctrl-wet 6: no recs for i =    80           0
(PID.TID 0000.0001) ctrl-wet 6: no recs for i =    81           0
(PID.TID 0000.0001) ctrl-wet 6: no recs for i =    82           0
(PID.TID 0000.0001) ctrl-wet 6: no recs for i =    83           0
(PID.TID 0000.0001) ctrl-wet 6: no recs for i =    84           0
(PID.TID 0000.0001) ctrl-wet 6: no recs for i =    85           0
(PID.TID 0000.0001) ctrl-wet 6: no recs for i =    86           0
(PID.TID 0000.0001) ctrl-wet 6: no recs for i =    87           0
(PID.TID 0000.0001) ctrl-wet 6: no recs for i =    88           0
(PID.TID 0000.0001) ctrl-wet 6: no recs for i =    89           0
(PID.TID 0000.0001) ctrl-wet 6: no recs for i =    90           0
(PID.TID 0000.0001) ctrl-wet 6: no recs for i =    91           0
(PID.TID 0000.0001) ctrl-wet 6: no recs for i =    92           0
(PID.TID 0000.0001) ctrl-wet 6: no recs for i =    93           0
(PID.TID 0000.0001) ctrl-wet 6: no recs for i =    94           0
(PID.TID 0000.0001) ctrl-wet 6: no recs for i =    95           0
(PID.TID 0000.0001) ctrl-wet 6: no recs for i =    96           0
(PID.TID 0000.0001) ctrl-wet 6: no recs for i =    97           0
(PID.TID 0000.0001) ctrl-wet 6: no recs for i =    98           0
(PID.TID 0000.0001) ctrl-wet 6: no recs for i =    99           0
(PID.TID 0000.0001) ctrl-wet 6: no recs for i =   100           0
(PID.TID 0000.0001) ctrl-wet 6: no recs for i =   101           1
(PID.TID 0000.0001) ctrl-wet 6: no recs for i =   102           0
(PID.TID 0000.0001) ctrl-wet 6: no recs for i =   103           0
(PID.TID 0000.0001) ctrl-wet 6: no recs for i =   104           0
(PID.TID 0000.0001) ctrl-wet 6: no recs for i =   105           0
(PID.TID 0000.0001) ctrl-wet 6: no recs for i =   106           0
(PID.TID 0000.0001) ctrl-wet 6: no recs for i =   107           0
(PID.TID 0000.0001) ctrl-wet 6: no recs for i =   108           0
(PID.TID 0000.0001) ctrl-wet 6: no recs for i =   109           0
(PID.TID 0000.0001) ctrl-wet 6: no recs for i =   110           0
(PID.TID 0000.0001) ctrl-wet 6: no recs for i =   111           0
(PID.TID 0000.0001) ctrl-wet 6: no recs for i =   112           0
(PID.TID 0000.0001) ctrl-wet 6: no recs for i =   113           0
(PID.TID 0000.0001) ctrl-wet 6: no recs for i =   114           0
(PID.TID 0000.0001) ctrl-wet 6: no recs for i =   115           0
(PID.TID 0000.0001) ctrl-wet 6: no recs for i =   116           0
(PID.TID 0000.0001) ctrl-wet 6: no recs for i =   117           0
(PID.TID 0000.0001) ctrl-wet 6: no recs for i =   118           0
(PID.TID 0000.0001) ctrl-wet 6: no recs for i =   119           0
(PID.TID 0000.0001) ctrl-wet 6: no recs for i =   120           0
(PID.TID 0000.0001) ctrl-wet 6: no recs for i =   121           0
(PID.TID 0000.0001) ctrl-wet 6: no recs for i =   122           0
(PID.TID 0000.0001) ctrl-wet 6: no recs for i =   123           0
(PID.TID 0000.0001) ctrl-wet 6: no recs for i =   124           0
(PID.TID 0000.0001) ctrl-wet 6: no recs for i =   125           0
(PID.TID 0000.0001) ctrl-wet 6: no recs for i =   126           0
(PID.TID 0000.0001) ctrl-wet 6: no recs for i =   127           0
(PID.TID 0000.0001) ctrl-wet 6: no recs for i =   128           0
(PID.TID 0000.0001) ctrl-wet 6: no recs for i =   129           0
(PID.TID 0000.0001) ctrl-wet 6: no recs for i =   130           0
(PID.TID 0000.0001) ctrl-wet 6: no recs for i =   131           0
(PID.TID 0000.0001) ctrl-wet 6: no recs for i =   132           0
(PID.TID 0000.0001) ctrl-wet 6: no recs for i =   133           0
(PID.TID 0000.0001) ctrl-wet 6: no recs for i =   134           0
(PID.TID 0000.0001) ctrl-wet 6: no recs for i =   135           0
(PID.TID 0000.0001) ctrl-wet 6: no recs for i =   136           0
(PID.TID 0000.0001) ctrl-wet 6: no recs for i =   137           0
(PID.TID 0000.0001) ctrl-wet 6: no recs for i =   138           0
(PID.TID 0000.0001) ctrl-wet 6: no recs for i =   139           0
(PID.TID 0000.0001) ctrl-wet 6: no recs for i =   140           0
(PID.TID 0000.0001) ctrl-wet 6: no recs for i =   141           0
(PID.TID 0000.0001) ctrl-wet 6: no recs for i =   142           0
(PID.TID 0000.0001) ctrl-wet 6: no recs for i =   143           0
(PID.TID 0000.0001) ctrl-wet 6: no recs for i =   144           0
(PID.TID 0000.0001) ctrl-wet 6: no recs for i =   145           0
(PID.TID 0000.0001) ctrl-wet 6: no recs for i =   146           0
(PID.TID 0000.0001) ctrl-wet 6: no recs for i =   147           0
(PID.TID 0000.0001) ctrl-wet 6: no recs for i =   148           0
(PID.TID 0000.0001) ctrl-wet 6: no recs for i =   149           0
(PID.TID 0000.0001) ctrl-wet 6: no recs for i =   150           0
(PID.TID 0000.0001) ctrl-wet 6: no recs for i =   151           0
(PID.TID 0000.0001) ctrl-wet 6: no recs for i =   152           0
(PID.TID 0000.0001) ctrl-wet 6: no recs for i =   153           0
(PID.TID 0000.0001) ctrl-wet 6: no recs for i =   154           0
(PID.TID 0000.0001) ctrl-wet 6: no recs for i =   155           0
(PID.TID 0000.0001) ctrl-wet 6: no recs for i =   156           0
(PID.TID 0000.0001) ctrl-wet 6: no recs for i =   157           0
(PID.TID 0000.0001) ctrl-wet 6: no recs for i =   158           0
(PID.TID 0000.0001) ctrl-wet 6: no recs for i =   159           0
(PID.TID 0000.0001) ctrl-wet 6: no recs for i =   160           0
(PID.TID 0000.0001) ctrl-wet 6: no recs for i =   161           0
(PID.TID 0000.0001) ctrl-wet 6: no recs for i =   162           0
(PID.TID 0000.0001) ctrl-wet 6: no recs for i =   163           0
(PID.TID 0000.0001) ctrl-wet 6: no recs for i =   164           0
(PID.TID 0000.0001) ctrl-wet 6: no recs for i =   165           0
(PID.TID 0000.0001) ctrl-wet 6: no recs for i =   166           0
(PID.TID 0000.0001) ctrl-wet 6: no recs for i =   167           0
(PID.TID 0000.0001) ctrl-wet 6: no recs for i =   168           0
(PID.TID 0000.0001) ctrl-wet 6: no recs for i =   169           0
(PID.TID 0000.0001) ctrl-wet 6: no recs for i =   170           0
(PID.TID 0000.0001) ctrl-wet 6: no recs for i =   171           0
(PID.TID 0000.0001) ctrl-wet 6: no recs for i =   172           0
(PID.TID 0000.0001) ctrl-wet 6: no recs for i =   173           0
(PID.TID 0000.0001) ctrl-wet 6: no recs for i =   174           0
(PID.TID 0000.0001) ctrl-wet 6: no recs for i =   175           0
(PID.TID 0000.0001) ctrl-wet 6: no recs for i =   176           0
(PID.TID 0000.0001) ctrl-wet 6: no recs for i =   177           0
(PID.TID 0000.0001) ctrl-wet 6: no recs for i =   178           0
(PID.TID 0000.0001) ctrl-wet 6: no recs for i =   179           0
(PID.TID 0000.0001) ctrl-wet 6: no recs for i =   180           0
(PID.TID 0000.0001) ctrl-wet 6: no recs for i =   181           0
(PID.TID 0000.0001) ctrl-wet 6: no recs for i =   182           0
(PID.TID 0000.0001) ctrl-wet 6: no recs for i =   183           0
(PID.TID 0000.0001) ctrl-wet 6: no recs for i =   184           0
(PID.TID 0000.0001) ctrl-wet 6: no recs for i =   185           0
(PID.TID 0000.0001) ctrl-wet 6: no recs for i =   186           0
(PID.TID 0000.0001) ctrl-wet 6: no recs for i =   187           0
(PID.TID 0000.0001) ctrl-wet 6: no recs for i =   188           0
(PID.TID 0000.0001) ctrl-wet 6: no recs for i =   189           0
(PID.TID 0000.0001) ctrl-wet 6: no recs for i =   190           0
(PID.TID 0000.0001) ctrl-wet 6: no recs for i =   191           0
(PID.TID 0000.0001) ctrl-wet 6: no recs for i =   192           0
(PID.TID 0000.0001) ctrl-wet 6: no recs for i =   193           0
(PID.TID 0000.0001) ctrl-wet 6: no recs for i =   194           0
(PID.TID 0000.0001) ctrl-wet 6: no recs for i =   195           0
(PID.TID 0000.0001) ctrl-wet 6: no recs for i =   196           0
(PID.TID 0000.0001) ctrl-wet 6: no recs for i =   197           0
(PID.TID 0000.0001) ctrl-wet 6: no recs for i =   198           0
(PID.TID 0000.0001) ctrl-wet 6: no recs for i =   199           0
(PID.TID 0000.0001) ctrl-wet 6: no recs for i =   200           0
(PID.TID 0000.0001) ctrl-wet 6: no recs for i =   201           1
(PID.TID 0000.0001) ctrl-wet 6: no recs for i =   202           1
(PID.TID 0000.0001) ctrl-wet 6: no recs for i =   203           1
(PID.TID 0000.0001) ctrl-wet 6: no recs for i =   204           0
(PID.TID 0000.0001) ctrl-wet 6: no recs for i =   205           0
(PID.TID 0000.0001) ctrl-wet 6: no recs for i =   206           0
(PID.TID 0000.0001) ctrl-wet 6: no recs for i =   207           0
(PID.TID 0000.0001) ctrl-wet 6: no recs for i =   208           0
(PID.TID 0000.0001) ctrl-wet 6: no recs for i =   209           0
(PID.TID 0000.0001) ctrl-wet 6: no recs for i =   210           0
(PID.TID 0000.0001) ctrl-wet 6: no recs for i =   211           0
(PID.TID 0000.0001) ctrl-wet 6: no recs for i =   212           0
(PID.TID 0000.0001) ctrl-wet 6: no recs for i =   213           0
(PID.TID 0000.0001) ctrl-wet 6: no recs for i =   214           0
(PID.TID 0000.0001) ctrl-wet 6: no recs for i =   215           0
(PID.TID 0000.0001) ctrl-wet 6: no recs for i =   216           0
(PID.TID 0000.0001) ctrl-wet 6: no recs for i =   217           0
(PID.TID 0000.0001) ctrl-wet 6: no recs for i =   218           0
(PID.TID 0000.0001) ctrl-wet 6: no recs for i =   219           0
(PID.TID 0000.0001) ctrl-wet 6: no recs for i =   220           0
(PID.TID 0000.0001) ctrl-wet 6: no recs for i =   221           0
(PID.TID 0000.0001) ctrl-wet 6: no recs for i =   222           0
(PID.TID 0000.0001) ctrl-wet 6: no recs for i =   223           0
(PID.TID 0000.0001) ctrl-wet 6: no recs for i =   224           0
(PID.TID 0000.0001) ctrl-wet 6: no recs for i =   225           0
(PID.TID 0000.0001) ctrl-wet 6: no recs for i =   226           0
(PID.TID 0000.0001) ctrl-wet 6: no recs for i =   227           0
(PID.TID 0000.0001) ctrl-wet 6: no recs for i =   228           0
(PID.TID 0000.0001) ctrl-wet 6: no recs for i =   229           0
(PID.TID 0000.0001) ctrl-wet 6: no recs for i =   230           0
(PID.TID 0000.0001) ctrl-wet 6: no recs for i =   231           0
(PID.TID 0000.0001) ctrl-wet 6: no recs for i =   232           0
(PID.TID 0000.0001) ctrl-wet 6: no recs for i =   233           0
(PID.TID 0000.0001) ctrl-wet 6: no recs for i =   234           0
(PID.TID 0000.0001) ctrl-wet 6: no recs for i =   235           0
(PID.TID 0000.0001) ctrl-wet 6: no recs for i =   236           0
(PID.TID 0000.0001) ctrl-wet 6: no recs for i =   237           0
(PID.TID 0000.0001) ctrl-wet 6: no recs for i =   238           0
(PID.TID 0000.0001) ctrl-wet 6: no recs for i =   239           0
(PID.TID 0000.0001) ctrl-wet 6: no recs for i =   240           0
(PID.TID 0000.0001) ctrl-wet 6: no recs for i =   241           0
(PID.TID 0000.0001) ctrl-wet 6: no recs for i =   242           0
(PID.TID 0000.0001) ctrl-wet 6: no recs for i =   243           0
(PID.TID 0000.0001) ctrl-wet 6: no recs for i =   244           0
(PID.TID 0000.0001) ctrl-wet 6: no recs for i =   245           0
(PID.TID 0000.0001) ctrl-wet 6: no recs for i =   246           0
(PID.TID 0000.0001) ctrl-wet 6: no recs for i =   247           0
(PID.TID 0000.0001) ctrl-wet 6: no recs for i =   248           0
(PID.TID 0000.0001) ctrl-wet 6: no recs for i =   249           0
(PID.TID 0000.0001) ctrl-wet 6: no recs for i =   250           0
(PID.TID 0000.0001) ctrl-wet 6: no recs for i =   251           0
(PID.TID 0000.0001) ctrl-wet 6: no recs for i =   252           0
(PID.TID 0000.0001) ctrl-wet 6: no recs for i =   253           0
(PID.TID 0000.0001) ctrl-wet 6: no recs for i =   254           0
(PID.TID 0000.0001) ctrl-wet 6: no recs for i =   255           0
(PID.TID 0000.0001) ctrl-wet 6: no recs for i =   256           0
(PID.TID 0000.0001) ctrl-wet 6: no recs for i =   257           0
(PID.TID 0000.0001) ctrl-wet 6: no recs for i =   258           0
(PID.TID 0000.0001) ctrl-wet 6: no recs for i =   259           0
(PID.TID 0000.0001) ctrl-wet 6: no recs for i =   260           0
(PID.TID 0000.0001) ctrl-wet 6: no recs for i =   261           0
(PID.TID 0000.0001) ctrl-wet 6: no recs for i =   262           0
(PID.TID 0000.0001) ctrl-wet 6: no recs for i =   263           0
(PID.TID 0000.0001) ctrl-wet 6: no recs for i =   264           0
(PID.TID 0000.0001) ctrl-wet 6: no recs for i =   265           0
(PID.TID 0000.0001) ctrl-wet 6: no recs for i =   266           0
(PID.TID 0000.0001) ctrl-wet 6: no recs for i =   267           0
(PID.TID 0000.0001) ctrl-wet 6: no recs for i =   268           0
(PID.TID 0000.0001) ctrl-wet 6: no recs for i =   269           0
(PID.TID 0000.0001) ctrl-wet 6: no recs for i =   270           0
(PID.TID 0000.0001) ctrl-wet 6: no recs for i =   271           0
(PID.TID 0000.0001) ctrl-wet 6: no recs for i =   272           0
(PID.TID 0000.0001) ctrl-wet 6: no recs for i =   273           0
(PID.TID 0000.0001) ctrl-wet 6: no recs for i =   274           0
(PID.TID 0000.0001) ctrl-wet 6: no recs for i =   275           0
(PID.TID 0000.0001) ctrl-wet 6: no recs for i =   276           0
(PID.TID 0000.0001) ctrl-wet 6: no recs for i =   277           0
(PID.TID 0000.0001) ctrl-wet 6: no recs for i =   278           0
(PID.TID 0000.0001) ctrl-wet 6: no recs for i =   279           0
(PID.TID 0000.0001) ctrl-wet 6: no recs for i =   280           0
(PID.TID 0000.0001) ctrl-wet 6: no recs for i =   281           0
(PID.TID 0000.0001) ctrl-wet 6: no recs for i =   282           0
(PID.TID 0000.0001) ctrl-wet 6: no recs for i =   283           0
(PID.TID 0000.0001) ctrl-wet 6: no recs for i =   284           0
(PID.TID 0000.0001) ctrl-wet 6: no recs for i =   285           0
(PID.TID 0000.0001) ctrl-wet 6: no recs for i =   286           0
(PID.TID 0000.0001) ctrl-wet 6: no recs for i =   287           0
(PID.TID 0000.0001) ctrl-wet 6: no recs for i =   288           0
(PID.TID 0000.0001) ctrl-wet 6: no recs for i =   289           0
(PID.TID 0000.0001) ctrl-wet 6: no recs for i =   290           0
(PID.TID 0000.0001) ctrl-wet 6: no recs for i =   291           0
(PID.TID 0000.0001) ctrl-wet 6: no recs for i =   292           0
(PID.TID 0000.0001) ctrl-wet 6: no recs for i =   293           0
(PID.TID 0000.0001) ctrl-wet 6: no recs for i =   294           0
(PID.TID 0000.0001) ctrl-wet 6: no recs for i =   295           0
(PID.TID 0000.0001) ctrl-wet 6: no recs for i =   296           0
(PID.TID 0000.0001) ctrl-wet 6: no recs for i =   297           0
(PID.TID 0000.0001) ctrl-wet 6: no recs for i =   298           0
(PID.TID 0000.0001) ctrl-wet 6: no recs for i =   299           0
(PID.TID 0000.0001) ctrl-wet 6: no recs for i =   300           0
(PID.TID 0000.0001) ctrl-wet 6: no recs for i =   301           1
(PID.TID 0000.0001) ctrl-wet 6: no recs for i =   302           1
(PID.TID 0000.0001) ctrl-wet 6: no recs for i =   303           0
(PID.TID 0000.0001) ctrl-wet 6: no recs for i =   304           0
(PID.TID 0000.0001) ctrl-wet 6: no recs for i =   305           0
(PID.TID 0000.0001) ctrl-wet 6: no recs for i =   306           0
(PID.TID 0000.0001) ctrl-wet 6: no recs for i =   307           0
(PID.TID 0000.0001) ctrl-wet 6: no recs for i =   308           0
(PID.TID 0000.0001) ctrl-wet 6: no recs for i =   309           0
(PID.TID 0000.0001) ctrl-wet 6: no recs for i =   310           0
(PID.TID 0000.0001) ctrl-wet 6: no recs for i =   311           0
(PID.TID 0000.0001) ctrl-wet 6: no recs for i =   312           0
(PID.TID 0000.0001) ctrl-wet 6: no recs for i =   313           0
(PID.TID 0000.0001) ctrl-wet 6: no recs for i =   314           0
(PID.TID 0000.0001) ctrl-wet 6: no recs for i =   315           0
(PID.TID 0000.0001) ctrl-wet 6: no recs for i =   316           0
(PID.TID 0000.0001) ctrl-wet 6: no recs for i =   317           0
(PID.TID 0000.0001) ctrl-wet 6: no recs for i =   318           0
(PID.TID 0000.0001) ctrl-wet 6: no recs for i =   319           0
(PID.TID 0000.0001) ctrl-wet 6: no recs for i =   320           0
(PID.TID 0000.0001) ctrl-wet 6: no recs for i =   321           0
(PID.TID 0000.0001) ctrl-wet 6: no recs for i =   322           0
(PID.TID 0000.0001) ctrl-wet 6: no recs for i =   323           0
(PID.TID 0000.0001) ctrl-wet 6: no recs for i =   324           0
(PID.TID 0000.0001) ctrl-wet 6: no recs for i =   325           0
(PID.TID 0000.0001) ctrl-wet 6: no recs for i =   326           0
(PID.TID 0000.0001) ctrl-wet 6: no recs for i =   327           0
(PID.TID 0000.0001) ctrl-wet 6: no recs for i =   328           0
(PID.TID 0000.0001) ctrl-wet 6: no recs for i =   329           0
(PID.TID 0000.0001) ctrl-wet 6: no recs for i =   330           0
(PID.TID 0000.0001) ctrl-wet 6: no recs for i =   331           0
(PID.TID 0000.0001) ctrl-wet 6: no recs for i =   332           0
(PID.TID 0000.0001) ctrl-wet 6: no recs for i =   333           0
(PID.TID 0000.0001) ctrl-wet 6: no recs for i =   334           0
(PID.TID 0000.0001) ctrl-wet 6: no recs for i =   335           0
(PID.TID 0000.0001) ctrl-wet 6: no recs for i =   336           0
(PID.TID 0000.0001) ctrl-wet 6: no recs for i =   337           0
(PID.TID 0000.0001) ctrl-wet 6: no recs for i =   338           0
(PID.TID 0000.0001) ctrl-wet 6: no recs for i =   339           0
(PID.TID 0000.0001) ctrl-wet 6: no recs for i =   340           0
(PID.TID 0000.0001) ctrl-wet 6: no recs for i =   341           0
(PID.TID 0000.0001) ctrl-wet 6: no recs for i =   342           0
(PID.TID 0000.0001) ctrl-wet 6: no recs for i =   343           0
(PID.TID 0000.0001) ctrl-wet 6: no recs for i =   344           0
(PID.TID 0000.0001) ctrl-wet 6: no recs for i =   345           0
(PID.TID 0000.0001) ctrl-wet 6: no recs for i =   346           0
(PID.TID 0000.0001) ctrl-wet 6: no recs for i =   347           0
(PID.TID 0000.0001) ctrl-wet 6: no recs for i =   348           0
(PID.TID 0000.0001) ctrl-wet 6: no recs for i =   349           0
(PID.TID 0000.0001) ctrl-wet 6: no recs for i =   350           0
(PID.TID 0000.0001) ctrl-wet 6: no recs for i =   351           0
(PID.TID 0000.0001) ctrl-wet 6: no recs for i =   352           0
(PID.TID 0000.0001) ctrl-wet 6: no recs for i =   353           0
(PID.TID 0000.0001) ctrl-wet 6: no recs for i =   354           0
(PID.TID 0000.0001) ctrl-wet 6: no recs for i =   355           0
(PID.TID 0000.0001) ctrl-wet 6: no recs for i =   356           0
(PID.TID 0000.0001) ctrl-wet 6: no recs for i =   357           0
(PID.TID 0000.0001) ctrl-wet 6: no recs for i =   358           0
(PID.TID 0000.0001) ctrl-wet 6: no recs for i =   359           0
(PID.TID 0000.0001) ctrl-wet 6: no recs for i =   360           0
(PID.TID 0000.0001) ctrl-wet 6: no recs for i =   361           0
(PID.TID 0000.0001) ctrl-wet 6: no recs for i =   362           0
(PID.TID 0000.0001) ctrl-wet 6: no recs for i =   363           0
(PID.TID 0000.0001) ctrl-wet 6: no recs for i =   364           0
(PID.TID 0000.0001) ctrl-wet 6: no recs for i =   365           0
(PID.TID 0000.0001) ctrl-wet 6: no recs for i =   366           0
(PID.TID 0000.0001) ctrl-wet 6: no recs for i =   367           0
(PID.TID 0000.0001) ctrl-wet 6: no recs for i =   368           0
(PID.TID 0000.0001) ctrl-wet 6: no recs for i =   369           0
(PID.TID 0000.0001) ctrl-wet 6: no recs for i =   370           0
(PID.TID 0000.0001) ctrl-wet 6: no recs for i =   371           0
(PID.TID 0000.0001) ctrl-wet 6: no recs for i =   372           0
(PID.TID 0000.0001) ctrl-wet 6: no recs for i =   373           0
(PID.TID 0000.0001) ctrl-wet 6: no recs for i =   374           0
(PID.TID 0000.0001) ctrl-wet 6: no recs for i =   375           0
(PID.TID 0000.0001) ctrl-wet 6: no recs for i =   376           0
(PID.TID 0000.0001) ctrl-wet 6: no recs for i =   377           0
(PID.TID 0000.0001) ctrl-wet 6: no recs for i =   378           0
(PID.TID 0000.0001) ctrl-wet 6: no recs for i =   379           0
(PID.TID 0000.0001) ctrl-wet 6: no recs for i =   380           0
(PID.TID 0000.0001) ctrl-wet 6: no recs for i =   381           0
(PID.TID 0000.0001) ctrl-wet 6: no recs for i =   382           0
(PID.TID 0000.0001) ctrl-wet 6: no recs for i =   383           0
(PID.TID 0000.0001) ctrl-wet 6: no recs for i =   384           0
(PID.TID 0000.0001) ctrl-wet 6: no recs for i =   385           0
(PID.TID 0000.0001) ctrl-wet 6: no recs for i =   386           0
(PID.TID 0000.0001) ctrl-wet 6: no recs for i =   387           0
(PID.TID 0000.0001) ctrl-wet 6: no recs for i =   388           0
(PID.TID 0000.0001) ctrl-wet 6: no recs for i =   389           0
(PID.TID 0000.0001) ctrl-wet 6: no recs for i =   390           0
(PID.TID 0000.0001) ctrl-wet 6: no recs for i =   391           0
(PID.TID 0000.0001) ctrl-wet 6: no recs for i =   392           0
(PID.TID 0000.0001) ctrl-wet 6: no recs for i =   393           0
(PID.TID 0000.0001) ctrl-wet 6: no recs for i =   394           0
(PID.TID 0000.0001) ctrl-wet 6: no recs for i =   395           0
(PID.TID 0000.0001) ctrl-wet 6: no recs for i =   396           0
(PID.TID 0000.0001) ctrl-wet 6: no recs for i =   397           0
(PID.TID 0000.0001) ctrl-wet 6: no recs for i =   398           0
(PID.TID 0000.0001) ctrl-wet 6: no recs for i =   399           0
(PID.TID 0000.0001) ctrl-wet 6: no recs for i =   400           0
(PID.TID 0000.0001) ctrl-wet 7: flux             0
(PID.TID 0000.0001) ctrl-wet 8: atmos            0
(PID.TID 0000.0001) ctrl-wet -------------------------------------------------
(PID.TID 0000.0001) ctrl-wet 13: global nvarlength for Nr =   50     5051037
(PID.TID 0000.0001) ctrl-wet -------------------------------------------------
(PID.TID 0000.0001) ctrl-wet 14: global nWet C#S/W/V k=    1       42302       42062       42243           0
(PID.TID 0000.0001) ctrl-wet 14: global nWet C#S/W/V k=    2       42302       42062       42243           0
(PID.TID 0000.0001) ctrl-wet 14: global nWet C#S/W/V k=    3       42302       42062       42243           0
(PID.TID 0000.0001) ctrl-wet 14: global nWet C#S/W/V k=    4       42302       42062       42243           0
(PID.TID 0000.0001) ctrl-wet 14: global nWet C#S/W/V k=    5       42302       42062       42243           0
(PID.TID 0000.0001) ctrl-wet 14: global nWet C#S/W/V k=    6       42302       42062       42243           0
(PID.TID 0000.0001) ctrl-wet 14: global nWet C#S/W/V k=    7       42302       42062       42243           0
(PID.TID 0000.0001) ctrl-wet 14: global nWet C#S/W/V k=    8       42302       42062       42243           0
(PID.TID 0000.0001) ctrl-wet 14: global nWet C#S/W/V k=    9       42302       42062       42243           0
(PID.TID 0000.0001) ctrl-wet 14: global nWet C#S/W/V k=   10       42302       42062       42243           0
(PID.TID 0000.0001) ctrl-wet 14: global nWet C#S/W/V k=   11       42302       42062       42243           0
(PID.TID 0000.0001) ctrl-wet 14: global nWet C#S/W/V k=   12       42302       42062       42243           0
(PID.TID 0000.0001) ctrl-wet 14: global nWet C#S/W/V k=   13       42302       42062       42243           0
(PID.TID 0000.0001) ctrl-wet 14: global nWet C#S/W/V k=   14       42302       42062       42243           0
(PID.TID 0000.0001) ctrl-wet 14: global nWet C#S/W/V k=   15       42302       42062       42243           0
(PID.TID 0000.0001) ctrl-wet 14: global nWet C#S/W/V k=   16       42302       42062       42243           0
(PID.TID 0000.0001) ctrl-wet 14: global nWet C#S/W/V k=   17       42302       42062       42243           0
(PID.TID 0000.0001) ctrl-wet 14: global nWet C#S/W/V k=   18       42302       42062       42243           0
(PID.TID 0000.0001) ctrl-wet 14: global nWet C#S/W/V k=   19       42302       42062       42243           0
(PID.TID 0000.0001) ctrl-wet 14: global nWet C#S/W/V k=   20       42302       42062       42243           0
(PID.TID 0000.0001) ctrl-wet 14: global nWet C#S/W/V k=   21       41899       41659       41809           0
(PID.TID 0000.0001) ctrl-wet 14: global nWet C#S/W/V k=   22       41709       41469       41615           0
(PID.TID 0000.0001) ctrl-wet 14: global nWet C#S/W/V k=   23       41621       41381       41526           0
(PID.TID 0000.0001) ctrl-wet 14: global nWet C#S/W/V k=   24       41531       41291       41435           0
(PID.TID 0000.0001) ctrl-wet 14: global nWet C#S/W/V k=   25       41455       41215       41359           0
(PID.TID 0000.0001) ctrl-wet 14: global nWet C#S/W/V k=   26       25774       25534       25768           0
(PID.TID 0000.0001) ctrl-wet 14: global nWet C#S/W/V k=   27       24895       24655       24892           0
(PID.TID 0000.0001) ctrl-wet 14: global nWet C#S/W/V k=   28       24674       24434       24672           0
(PID.TID 0000.0001) ctrl-wet 14: global nWet C#S/W/V k=   29       24459       24219       24458           0
(PID.TID 0000.0001) ctrl-wet 14: global nWet C#S/W/V k=   30       24455       24215       24454           0
(PID.TID 0000.0001) ctrl-wet 14: global nWet C#S/W/V k=   31       24225       23985       24224           0
(PID.TID 0000.0001) ctrl-wet 14: global nWet C#S/W/V k=   32       24221       23981       24220           0
(PID.TID 0000.0001) ctrl-wet 14: global nWet C#S/W/V k=   33       24217       23977       24216           0
(PID.TID 0000.0001) ctrl-wet 14: global nWet C#S/W/V k=   34       24000       23760       24000           0
(PID.TID 0000.0001) ctrl-wet 14: global nWet C#S/W/V k=   35       24000       23760       24000           0
(PID.TID 0000.0001) ctrl-wet 14: global nWet C#S/W/V k=   36       24000       23760       24000           0
(PID.TID 0000.0001) ctrl-wet 14: global nWet C#S/W/V k=   37       23981       23741       23980           0
(PID.TID 0000.0001) ctrl-wet 14: global nWet C#S/W/V k=   38       23760       23520       23760           0
(PID.TID 0000.0001) ctrl-wet 14: global nWet C#S/W/V k=   39       23741       23501       23740           0
(PID.TID 0000.0001) ctrl-wet 14: global nWet C#S/W/V k=   40       23520       23280       23520           0
(PID.TID 0000.0001) ctrl-wet 14: global nWet C#S/W/V k=   41       23280       23040       23280           0
(PID.TID 0000.0001) ctrl-wet 14: global nWet C#S/W/V k=   42       23280       23040       23280           0
(PID.TID 0000.0001) ctrl-wet 14: global nWet C#S/W/V k=   43       23040       22800       23040           0
(PID.TID 0000.0001) ctrl-wet 14: global nWet C#S/W/V k=   44       22800       22560       22800           0
(PID.TID 0000.0001) ctrl-wet 14: global nWet C#S/W/V k=   45       22560       22320       22560           0
(PID.TID 0000.0001) ctrl-wet 14: global nWet C#S/W/V k=   46       22320       22080       22320           0
(PID.TID 0000.0001) ctrl-wet 14: global nWet C#S/W/V k=   47       22080       21840       22080           0
(PID.TID 0000.0001) ctrl-wet 14: global nWet C#S/W/V k=   48       21840       21600       21840           0
(PID.TID 0000.0001) ctrl-wet 14: global nWet C#S/W/V k=   49       21360       21120       21360           0
(PID.TID 0000.0001) ctrl-wet 14: global nWet C#S/W/V k=   50       20640       20400       20640           0
(PID.TID 0000.0001) ctrl-wet -------------------------------------------------
(PID.TID 0000.0001) ctrl-wet -------------------------------------------------
(PID.TID 0000.0001) ctrl-wet -------------------------------------------------
(PID.TID 0000.0001) ctrl_init: no. of control variables:            6
(PID.TID 0000.0001) ctrl_init: control vector length:         5051037
(PID.TID 0000.0001) 
(PID.TID 0000.0001) #/ =======================================================
(PID.TID 0000.0001) #/ control vector configuration  >>> START <<<
(PID.TID 0000.0001) #/ =======================================================
(PID.TID 0000.0001) 
(PID.TID 0000.0001)  Total number of ocean points per tile:
(PID.TID 0000.0001)  --------------------------------------
(PID.TID 0000.0001)  snx*sny*nr =    20000
(PID.TID 0000.0001) 
(PID.TID 0000.0001)  Number of ocean points per tile:
(PID.TID 0000.0001)  --------------------------------
(PID.TID 0000.0001)  bi,bj,#(c#s/w): 0001 0001 000000 000000 000000
(PID.TID 0000.0001) 
(PID.TID 0000.0001)  Settings of generic controls:
(PID.TID 0000.0001)  -----------------------------
(PID.TID 0000.0001) 
(PID.TID 0000.0001)  ctrlUseGen  =     T #* use generic controls */
(PID.TID 0000.0001)  -> 2D control, genarr2d no.  1 is in use
(PID.TID 0000.0001)       file       = xx_bottomdrag
(PID.TID 0000.0001)       weight     = ones2D.bin
(PID.TID 0000.0001)  -> 3d control, genarr3d no.  1 is in use
(PID.TID 0000.0001)       file       = xx_theta
(PID.TID 0000.0001)       weight     = ones3D.bin
(PID.TID 0000.0001)  -> 3d control, genarr3d no.  2 is in use
(PID.TID 0000.0001)       file       = xx_uvel
(PID.TID 0000.0001)       weight     = ones3D.bin
(PID.TID 0000.0001)  -> 3d control, genarr3d no.  3 is in use
(PID.TID 0000.0001)       file       = xx_vvel
(PID.TID 0000.0001)       weight     = ones3D.bin
(PID.TID 0000.0001)  -> time variable 2D control, gentim2d no.  1 is in use
(PID.TID 0000.0001)       file       = xx_tauu
(PID.TID 0000.0001)       weight     = ones2D.bin
(PID.TID 0000.0001)       period     =  00000000 000000
(PID.TID 0000.0001)  -> time variable 2D control, gentim2d no.  2 is in use
(PID.TID 0000.0001)       file       = xx_tauv
(PID.TID 0000.0001)       weight     = ones2D.bin
(PID.TID 0000.0001)       period     =  00000000 000000
(PID.TID 0000.0001) 
(PID.TID 0000.0001) #/ =======================================================
(PID.TID 0000.0001) #/ control vector configuration  >>> END <<<
(PID.TID 0000.0001) #/ =======================================================
(PID.TID 0000.0001) 
(PID.TID 0000.0001) Empty tile bi,bj=     1     1
(PID.TID 0000.0001) 
(PID.TID 0000.0001) %MON fCori_max                    =  -1.4000000000000E-04
(PID.TID 0000.0001) %MON fCori_min                    =  -1.4000000000000E-04
(PID.TID 0000.0001) %MON fCori_mean                   =  -1.4000000000000E-04
(PID.TID 0000.0001) %MON fCori_sd                     =   6.7762635780344E-19
(PID.TID 0000.0001) %MON fCoriG_max                   =  -1.4000000000000E-04
(PID.TID 0000.0001) %MON fCoriG_min                   =  -1.4000000000000E-04
(PID.TID 0000.0001) %MON fCoriG_mean                  =  -1.4000000000000E-04
(PID.TID 0000.0001) %MON fCoriG_sd                    =   6.7762635780344E-19
(PID.TID 0000.0001) %MON fCoriCos_max                 =   0.0000000000000E+00
(PID.TID 0000.0001) %MON fCoriCos_min                 =   0.0000000000000E+00
(PID.TID 0000.0001) %MON fCoriCos_mean                =   0.0000000000000E+00
(PID.TID 0000.0001) %MON fCoriCos_sd                  =   0.0000000000000E+00
(PID.TID 0000.0001) INI_CG2D: CG2D normalisation factor =  1.0000000000101035E-03
(PID.TID 0000.0001) 
(PID.TID 0000.0001) #/ =======================================================
(PID.TID 0000.0001) #/ Model configuration
(PID.TID 0000.0001) #/ =======================================================
(PID.TID 0000.0001) #/
(PID.TID 0000.0001) #/ "Physical" paramters ( PARM01 in namelist )
(PID.TID 0000.0001) #/
(PID.TID 0000.0001) buoyancyRelation = #* Type of relation to get Buoyancy */
(PID.TID 0000.0001)               'OCEANIC'
(PID.TID 0000.0001)     ;
(PID.TID 0000.0001) fluidIsAir   =  #* fluid major constituent is Air */
(PID.TID 0000.0001)                   F
(PID.TID 0000.0001)     ;
(PID.TID 0000.0001) fluidIsWater =  #* fluid major constituent is Water */
(PID.TID 0000.0001)                   T
(PID.TID 0000.0001)     ;
(PID.TID 0000.0001) usingPCoords =  #* use p (or p*) vertical coordinate */
(PID.TID 0000.0001)                   F
(PID.TID 0000.0001)     ;
(PID.TID 0000.0001) usingZCoords =  #* use z (or z*) vertical coordinate */
(PID.TID 0000.0001)                   T
(PID.TID 0000.0001)     ;
(PID.TID 0000.0001) tRef =   #* Reference temperature profile ( oC or K ) */
(PID.TID 0000.0001)    50 @ -1.800000000000000E+00              /* K =  1: 50 */
(PID.TID 0000.0001)     ;
(PID.TID 0000.0001) sRef =   #* Reference salinity profile ( psu ) */
(PID.TID 0000.0001)    50 @  3.350000000000000E+01              /* K =  1: 50 */
(PID.TID 0000.0001)     ;
(PID.TID 0000.0001) useStrainTensionVisc= #* Use StrainTension Form of Viscous Operator */
(PID.TID 0000.0001)                   F
(PID.TID 0000.0001)     ;
(PID.TID 0000.0001) useVariableVisc = #* Use variable horizontal viscosity */
(PID.TID 0000.0001)                   T
(PID.TID 0000.0001)     ;
(PID.TID 0000.0001) useHarmonicVisc = #* Use harmonic horizontal viscosity */
(PID.TID 0000.0001)                   T
(PID.TID 0000.0001)     ;
(PID.TID 0000.0001) useBiharmonicVisc= #* Use biharmonic horiz.  viscosity */
(PID.TID 0000.0001)                   T
(PID.TID 0000.0001)     ;
(PID.TID 0000.0001) useSmag3D = #* Use isotropic 3-D Smagorinsky viscosity */
(PID.TID 0000.0001)                   F
(PID.TID 0000.0001)     ;
(PID.TID 0000.0001) viscAh  =   #* Lateral harmonic viscosity ( m^2/s ) */
(PID.TID 0000.0001)                 1.000000000000000E+01
(PID.TID 0000.0001)     ;
(PID.TID 0000.0001) viscAhMax = #* Maximum lateral harmonic viscosity ( m^2/s ) */
(PID.TID 0000.0001)                 1.000000000000000E+21
(PID.TID 0000.0001)     ;
(PID.TID 0000.0001) viscAhGrid = #* Grid dependent lateral harmonic viscosity ( non-dim. ) */
(PID.TID 0000.0001)                 0.000000000000000E+00
(PID.TID 0000.0001)     ;
(PID.TID 0000.0001) useFullLeith = #* Use Full Form of Leith Viscosity on/off flag*/
(PID.TID 0000.0001)                   F
(PID.TID 0000.0001)     ;
(PID.TID 0000.0001) useAreaViscLength = #* Use area for visc length instead of geom. mean*/
(PID.TID 0000.0001)                   F
(PID.TID 0000.0001)     ;
(PID.TID 0000.0001) viscC2leith = #* Leith harmonic visc. factor (on grad(vort),non-dim.) */
(PID.TID 0000.0001)                 0.000000000000000E+00
(PID.TID 0000.0001)     ;
(PID.TID 0000.0001) viscC2leithD = #* Leith harmonic viscosity factor (on grad(div),non-dim.)*/
(PID.TID 0000.0001)                 0.000000000000000E+00
(PID.TID 0000.0001)     ;
(PID.TID 0000.0001) viscC2LeithQG = #* QG Leith harmonic viscosity factor (non-dim.)*/
(PID.TID 0000.0001)                 0.000000000000000E+00
(PID.TID 0000.0001)     ;
(PID.TID 0000.0001) viscC2smag = #* Smagorinsky harmonic viscosity factor (non-dim.) */
(PID.TID 0000.0001)                 0.000000000000000E+00
(PID.TID 0000.0001)     ;
(PID.TID 0000.0001) viscA4  =   #* Lateral biharmonic viscosity ( m^4/s ) */
(PID.TID 0000.0001)                 0.000000000000000E+00
(PID.TID 0000.0001)     ;
(PID.TID 0000.0001) viscA4Max = #* Maximum biharmonic viscosity ( m^2/s ) */
(PID.TID 0000.0001)                 1.000000000000000E+21
[...]
(PID.TID 0000.0001) %MON ad_dynstat_adeta_del2        =   7.0292866807386E-01
(PID.TID 0000.0001) %MON ad_dynstat_aduvel_max        =   3.5954023767237E+16
(PID.TID 0000.0001) %MON ad_dynstat_aduvel_min        =  -3.9543815455883E+16
(PID.TID 0000.0001) %MON ad_dynstat_aduvel_mean       =  -9.2849044439171E+10
(PID.TID 0000.0001) %MON ad_dynstat_aduvel_sd         =   9.0057596938302E+13
(PID.TID 0000.0001) %MON ad_dynstat_aduvel_del2       =   2.1878969337255E+11
(PID.TID 0000.0001) %MON ad_dynstat_advvel_max        =   1.7434782764037E+16
(PID.TID 0000.0001) %MON ad_dynstat_advvel_min        =  -2.4785350152657E+16
(PID.TID 0000.0001) %MON ad_dynstat_advvel_mean       =  -1.8430059738006E+10
(PID.TID 0000.0001) %MON ad_dynstat_advvel_sd         =   7.2960965466561E+13
(PID.TID 0000.0001) %MON ad_dynstat_advvel_del2       =   1.4745133679343E+11
(PID.TID 0000.0001) %MON ad_dynstat_adwvel_max        =   5.8592639501564E+16
(PID.TID 0000.0001) %MON ad_dynstat_adwvel_min        =  -4.5698056804997E+16
(PID.TID 0000.0001) %MON ad_dynstat_adwvel_mean       =  -1.2455441761818E+09
(PID.TID 0000.0001) %MON ad_dynstat_adwvel_sd         =   9.7878959521442E+13
(PID.TID 0000.0001) %MON ad_dynstat_adwvel_del2       =   1.8285477498179E+11
(PID.TID 0000.0001) %MON ad_dynstat_adtheta_max       =   2.9061435831752E+28
(PID.TID 0000.0001) %MON ad_dynstat_adtheta_min       =  -2.7393851551650E+28
(PID.TID 0000.0001) %MON ad_dynstat_adtheta_mean      =   4.7089389353260E+19
(PID.TID 0000.0001) %MON ad_dynstat_adtheta_sd        =   1.0385054220168E+26
(PID.TID 0000.0001) %MON ad_dynstat_adtheta_del2      =   3.8039837327487E+23
(PID.TID 0000.0001) %MON ad_dynstat_adsalt_max        =   6.9966754032601E+30
(PID.TID 0000.0001) %MON ad_dynstat_adsalt_min        =  -6.9314840311846E+30
(PID.TID 0000.0001) %MON ad_dynstat_adsalt_mean       =   3.1068574779177E+21
(PID.TID 0000.0001) %MON ad_dynstat_adsalt_sd         =   2.2425378920740E+28
(PID.TID 0000.0001) %MON ad_dynstat_adsalt_del2       =   7.7239403866624E+25
(PID.TID 0000.0001) #/ =======================================================
(PID.TID 0000.0001) #/ End AD_MONITOR dynamic field statistics
(PID.TID 0000.0001) #/ =======================================================
(PID.TID 0000.0001) #/ =======================================================
(PID.TID 0000.0001) #/ Begin AD_MONITOR dynamic field statistics
(PID.TID 0000.0001) #/ =======================================================
(PID.TID 0000.0001) %MON ad_time_tsnumber             =                 15504
(PID.TID 0000.0001) %MON ad_time_secondsf             =   4.6512000000000E+06
(PID.TID 0000.0001) %MON ad_dynstat_adeta_max         =   7.2807167176123E+02
(PID.TID 0000.0001) %MON ad_dynstat_adeta_min         =   0.0000000000000E+00
(PID.TID 0000.0001) %MON ad_dynstat_adeta_mean        =   1.5390328799794E+02
(PID.TID 0000.0001) %MON ad_dynstat_adeta_sd          =   2.9726486863677E+02
(PID.TID 0000.0001) %MON ad_dynstat_adeta_del2        =   7.0292866807386E-01
(PID.TID 0000.0001) %MON ad_dynstat_aduvel_max        =   4.9920748182935E+16
(PID.TID 0000.0001) %MON ad_dynstat_aduvel_min        =  -1.0805484538125E+17
(PID.TID 0000.0001) %MON ad_dynstat_aduvel_mean       =  -7.8701140351213E+10
(PID.TID 0000.0001) %MON ad_dynstat_aduvel_sd         =   2.0346495595630E+14
(PID.TID 0000.0001) %MON ad_dynstat_aduvel_del2       =   4.9516537355131E+11
(PID.TID 0000.0001) %MON ad_dynstat_advvel_max        =   8.2051399539885E+16
(PID.TID 0000.0001) %MON ad_dynstat_advvel_min        =  -5.9479919591062E+16
(PID.TID 0000.0001) %MON ad_dynstat_advvel_mean       =  -6.3572345224086E+10
(PID.TID 0000.0001) %MON ad_dynstat_advvel_sd         =   1.6005658256149E+14
(PID.TID 0000.0001) %MON ad_dynstat_advvel_del2       =   3.1669405265573E+11
(PID.TID 0000.0001) %MON ad_dynstat_adwvel_max        =   9.6062242224545E+16
(PID.TID 0000.0001) %MON ad_dynstat_adwvel_min        =  -1.4186227672892E+17
(PID.TID 0000.0001) %MON ad_dynstat_adwvel_mean       =  -4.6700323078683E+09
(PID.TID 0000.0001) %MON ad_dynstat_adwvel_sd         =   2.4418101368251E+14
(PID.TID 0000.0001) %MON ad_dynstat_adwvel_del2       =   4.2923052104163E+11
(PID.TID 0000.0001) %MON ad_dynstat_adtheta_max       =   6.6358997124878E+28
(PID.TID 0000.0001) %MON ad_dynstat_adtheta_min       =  -6.2844427424883E+28
(PID.TID 0000.0001) %MON ad_dynstat_adtheta_mean      =   9.5287274894779E+19
(PID.TID 0000.0001) %MON ad_dynstat_adtheta_sd        =   2.3740839771718E+26
(PID.TID 0000.0001) %MON ad_dynstat_adtheta_del2      =   8.6854675549076E+23
(PID.TID 0000.0001) %MON ad_dynstat_adsalt_max        =   1.6085459498571E+31
(PID.TID 0000.0001) %MON ad_dynstat_adsalt_min        =  -1.5857741902604E+31
(PID.TID 0000.0001) %MON ad_dynstat_adsalt_mean       =   8.5358729868686E+21
(PID.TID 0000.0001) %MON ad_dynstat_adsalt_sd         =   5.1702107190399E+28
(PID.TID 0000.0001) %MON ad_dynstat_adsalt_del2       =   1.7786138461937E+26
(PID.TID 0000.0001) #/ =======================================================
(PID.TID 0000.0001) #/ End AD_MONITOR dynamic field statistics
(PID.TID 0000.0001) #/ =======================================================
(PID.TID 0000.0001) Start initial hydrostatic pressure computation
(PID.TID 0000.0001) Pressure is predetermined for buoyancyRelation OCEANIC
(PID.TID 0000.0001) 
(PID.TID 0000.0001) #/ =======================================================
(PID.TID 0000.0001) #/ Model current state
(PID.TID 0000.0001) #/ =======================================================
(PID.TID 0000.0001) 
(PID.TID 0000.0001) whio : write lev 2 rec   1
(PID.TID 0000.0001) whio : write lev 2 rec   2
(PID.TID 0000.0001) whio : write lev 2 rec   3
(PID.TID 0000.0001) whio : write lev 2 rec   4
(PID.TID 0000.0001) whio : write lev 2 rec   5
(PID.TID 0000.0001) whio : write lev 2 rec   6
(PID.TID 0000.0001) whio : write lev 2 rec   7
(PID.TID 0000.0001) whio : write lev 2 rec   8
(PID.TID 0000.0001) whio : write lev 2 rec   9
(PID.TID 0000.0001) whio : write lev 2 rec  10
(PID.TID 0000.0001) whio : write lev 2 rec  11
(PID.TID 0000.0001) whio : write lev 2 rec  12
(PID.TID 0000.0001) whio : write lev 2 rec  13
(PID.TID 0000.0001) whio : write lev 2 rec  14
(PID.TID 0000.0001) whio : write lev 2 rec  15
(PID.TID 0000.0001) whio : write lev 2 rec  16
(PID.TID 0000.0001) whio : write lev 2 rec  17
(PID.TID 0000.0001) whio : write lev 2 rec  18
(PID.TID 0000.0001) whio : write lev 2 rec  19
(PID.TID 0000.0001) whio : write lev 2 rec  20
(PID.TID 0000.0001) whio : write lev 2 rec  21
(PID.TID 0000.0001) whio : write lev 2 rec  22
(PID.TID 0000.0001) whio : write lev 2 rec  23
(PID.TID 0000.0001) whio : write lev 2 rec  24
(PID.TID 0000.0001) whio : write lev 2 rec  25
(PID.TID 0000.0001) whio : write lev 2 rec  26
(PID.TID 0000.0001) whio : write lev 2 rec  27
(PID.TID 0000.0001) whio : write lev 2 rec  28
(PID.TID 0000.0001) whio : write lev 2 rec  29
(PID.TID 0000.0001) whio : write lev 2 rec  30
(PID.TID 0000.0001) whio : write lev 2 rec  31
(PID.TID 0000.0001) whio : write lev 2 rec  32
(PID.TID 0000.0001) whio : write lev 2 rec  33
(PID.TID 0000.0001) whio : write lev 2 rec  34
(PID.TID 0000.0001) whio : write lev 2 rec  35
(PID.TID 0000.0001) whio : write lev 2 rec  36
(PID.TID 0000.0001) whio : write lev 2 rec  37
(PID.TID 0000.0001) whio : write lev 2 rec  38
(PID.TID 0000.0001) whio : write lev 2 rec  39
(PID.TID 0000.0001) whio : write lev 2 rec  40
(PID.TID 0000.0001) whio : write lev 2 rec  41
(PID.TID 0000.0001) whio : write lev 2 rec  42
(PID.TID 0000.0001) whio : write lev 2 rec  43
(PID.TID 0000.0001) whio : write lev 2 rec  44
(PID.TID 0000.0001) whio : write lev 2 rec  45
(PID.TID 0000.0001) whio : write lev 2 rec  46
(PID.TID 0000.0001) whio : write lev 2 rec  47
(PID.TID 0000.0001) whio : write lev 2 rec  48
(PID.TID 0000.0001) whio : write lev 2 rec  49
(PID.TID 0000.0001) whio : write lev 2 rec  50
(PID.TID 0000.0001) whio : write lev 2 rec  51
(PID.TID 0000.0001) whio : write lev 2 rec  52
(PID.TID 0000.0001) whio : write lev 2 rec  53
(PID.TID 0000.0001) whio : write lev 2 rec  54
(PID.TID 0000.0001) whio : write lev 2 rec  55
(PID.TID 0000.0001) whio : write lev 2 rec  56
(PID.TID 0000.0001) whio : write lev 2 rec  57
(PID.TID 0000.0001) whio : write lev 2 rec  58
(PID.TID 0000.0001) whio : write lev 2 rec  59
(PID.TID 0000.0001) whio : write lev 2 rec  60
(PID.TID 0000.0001) #/ =======================================================
(PID.TID 0000.0001) #/ Begin AD_MONITOR dynamic field statistics
(PID.TID 0000.0001) #/ =======================================================
(PID.TID 0000.0001) %MON ad_time_tsnumber             =                 15480
(PID.TID 0000.0001) %MON ad_time_secondsf             =   4.6440000000000E+06
(PID.TID 0000.0001) %MON ad_dynstat_adeta_max         =   7.2807167176123E+02
(PID.TID 0000.0001) %MON ad_dynstat_adeta_min         =   0.0000000000000E+00
(PID.TID 0000.0001) %MON ad_dynstat_adeta_mean        =   1.5390328799794E+02
(PID.TID 0000.0001) %MON ad_dynstat_adeta_sd          =   2.9726486863677E+02
(PID.TID 0000.0001) %MON ad_dynstat_adeta_del2        =   7.0292866807386E-01
(PID.TID 0000.0001) %MON ad_dynstat_aduvel_max        =   1.7544396268559E+17
(PID.TID 0000.0001) %MON ad_dynstat_aduvel_min        =  -1.6985621570886E+17
(PID.TID 0000.0001) %MON ad_dynstat_aduvel_mean       =   1.2245932659689E+11
(PID.TID 0000.0001) %MON ad_dynstat_aduvel_sd         =   4.7349623445353E+14
(PID.TID 0000.0001) %MON ad_dynstat_aduvel_del2       =   1.0283871573221E+12
(PID.TID 0000.0001) %MON ad_dynstat_advvel_max        =   7.4621900069666E+16
(PID.TID 0000.0001) %MON ad_dynstat_advvel_min        =  -1.0860431250269E+17
(PID.TID 0000.0001) %MON ad_dynstat_advvel_mean       =  -6.9858696582365E+11
(PID.TID 0000.0001) %MON ad_dynstat_advvel_sd         =   3.2316115823167E+14
(PID.TID 0000.0001) %MON ad_dynstat_advvel_del2       =   6.0163432557131E+11
(PID.TID 0000.0001) %MON ad_dynstat_adwvel_max        =   3.3134458395184E+17
(PID.TID 0000.0001) %MON ad_dynstat_adwvel_min        =  -3.5134151253421E+17
(PID.TID 0000.0001) %MON ad_dynstat_adwvel_mean       =   3.1771023199204E+10
(PID.TID 0000.0001) %MON ad_dynstat_adwvel_sd         =   6.6399261905845E+14
(PID.TID 0000.0001) %MON ad_dynstat_adwvel_del2       =   1.0119897729620E+12
(PID.TID 0000.0001) %MON ad_dynstat_adtheta_max       =   1.5125959951385E+29
(PID.TID 0000.0001) %MON ad_dynstat_adtheta_min       =  -1.4390654596678E+29
(PID.TID 0000.0001) %MON ad_dynstat_adtheta_mean      =   1.8925146133758E+20
(PID.TID 0000.0001) %MON ad_dynstat_adtheta_sd        =   5.4188972627536E+26
(PID.TID 0000.0001) %MON ad_dynstat_adtheta_del2      =   1.9800774553656E+24
(PID.TID 0000.0001) %MON ad_dynstat_adsalt_max        =   3.6912907970965E+31
(PID.TID 0000.0001) %MON ad_dynstat_adsalt_min        =  -3.6216489146409E+31
(PID.TID 0000.0001) %MON ad_dynstat_adsalt_mean       =   2.2806074203661E+22
(PID.TID 0000.0001) %MON ad_dynstat_adsalt_sd         =   1.1900841562973E+29
(PID.TID 0000.0001) %MON ad_dynstat_adsalt_del2       =   4.0891775651722E+26
(PID.TID 0000.0001) #/ =======================================================
(PID.TID 0000.0001) #/ End AD_MONITOR dynamic field statistics
(PID.TID 0000.0001) #/ =======================================================
(PID.TID 0000.0001) #/ =======================================================
(PID.TID 0000.0001) #/ Begin AD_MONITOR dynamic field statistics
(PID.TID 0000.0001) #/ =======================================================
(PID.TID 0000.0001) %MON ad_time_tsnumber             =                 15456
(PID.TID 0000.0001) %MON ad_time_secondsf             =   4.6368000000000E+06
(PID.TID 0000.0001) %MON ad_dynstat_adeta_max         =   7.2807167176123E+02
(PID.TID 0000.0001) %MON ad_dynstat_adeta_min         =   0.0000000000000E+00
(PID.TID 0000.0001) %MON ad_dynstat_adeta_mean        =   1.5390328799794E+02
(PID.TID 0000.0001) %MON ad_dynstat_adeta_sd          =   2.9726486863677E+02
(PID.TID 0000.0001) %MON ad_dynstat_adeta_del2        =   7.0292866807386E-01
(PID.TID 0000.0001) %MON ad_dynstat_aduvel_max        =   1.9428322068878E+17
(PID.TID 0000.0001) %MON ad_dynstat_aduvel_min        =  -1.7285957671741E+17
(PID.TID 0000.0001) %MON ad_dynstat_aduvel_mean       =   4.6319096974362E+11
(PID.TID 0000.0001) %MON ad_dynstat_aduvel_sd         =   5.9718331800339E+14
(PID.TID 0000.0001) %MON ad_dynstat_aduvel_del2       =   1.3241472801902E+12
(PID.TID 0000.0001) %MON ad_dynstat_advvel_max        =   1.0849856853480E+17
(PID.TID 0000.0001) %MON ad_dynstat_advvel_min        =  -2.2477859216757E+17
(PID.TID 0000.0001) %MON ad_dynstat_advvel_mean       =   3.1540674563534E+11
(PID.TID 0000.0001) %MON ad_dynstat_advvel_sd         =   5.2328307958619E+14
(PID.TID 0000.0001) %MON ad_dynstat_advvel_del2       =   9.6548458248536E+11
(PID.TID 0000.0001) %MON ad_dynstat_adwvel_max        =   2.7705081458329E+17
(PID.TID 0000.0001) %MON ad_dynstat_adwvel_min        =  -2.6329716282812E+17
(PID.TID 0000.0001) %MON ad_dynstat_adwvel_mean       =   5.0669222232876E+10
(PID.TID 0000.0001) %MON ad_dynstat_adwvel_sd         =   8.5072025567788E+14
(PID.TID 0000.0001) %MON ad_dynstat_adwvel_del2       =   1.4292235612635E+12
(PID.TID 0000.0001) %MON ad_dynstat_adtheta_max       =   3.4419819007181E+29
(PID.TID 0000.0001) %MON ad_dynstat_adtheta_min       =  -3.2894004796529E+29
(PID.TID 0000.0001) %MON ad_dynstat_adtheta_mean      =   3.6687689618851E+20
(PID.TID 0000.0001) %MON ad_dynstat_adtheta_sd        =   1.2350081044386E+27
(PID.TID 0000.0001) %MON ad_dynstat_adtheta_del2      =   4.5073584100912E+24
(PID.TID 0000.0001) %MON ad_dynstat_adsalt_max        =   8.4557103127868E+31
(PID.TID 0000.0001) %MON ad_dynstat_adsalt_min        =  -8.3221018172878E+31
(PID.TID 0000.0001) %MON ad_dynstat_adsalt_mean       =   5.9664084342795E+22
(PID.TID 0000.0001) %MON ad_dynstat_adsalt_sd         =   2.7350628691659E+29
(PID.TID 0000.0001) %MON ad_dynstat_adsalt_del2       =   9.3868752113487E+26
(PID.TID 0000.0001) #/ =======================================================
(PID.TID 0000.0001) #/ End AD_MONITOR dynamic field statistics
(PID.TID 0000.0001) #/ =======================================================
(PID.TID 0000.0001) #/ =======================================================
(PID.TID 0000.0001) #/ Begin AD_MONITOR dynamic field statistics
(PID.TID 0000.0001) #/ =======================================================
(PID.TID 0000.0001) %MON ad_time_tsnumber             =                 15432
(PID.TID 0000.0001) %MON ad_time_secondsf             =   4.6296000000000E+06
(PID.TID 0000.0001) %MON ad_dynstat_adeta_max         =   7.2807167176123E+02
(PID.TID 0000.0001) %MON ad_dynstat_adeta_min         =   0.0000000000000E+00
(PID.TID 0000.0001) %MON ad_dynstat_adeta_mean        =   1.5390328799794E+02
(PID.TID 0000.0001) %MON ad_dynstat_adeta_sd          =   2.9726486863677E+02
(PID.TID 0000.0001) %MON ad_dynstat_adeta_del2        =   7.0292866807386E-01
(PID.TID 0000.0001) %MON ad_dynstat_aduvel_max        =   1.1530431923262E+18
(PID.TID 0000.0001) %MON ad_dynstat_aduvel_min        =  -5.3163227996880E+17
(PID.TID 0000.0001) %MON ad_dynstat_aduvel_mean       =   9.9253318998460E+11
(PID.TID 0000.0001) %MON ad_dynstat_aduvel_sd         =   2.0845843011001E+15
(PID.TID 0000.0001) %MON ad_dynstat_aduvel_del2       =   4.8100631035633E+12
(PID.TID 0000.0001) %MON ad_dynstat_advvel_max        =   3.3845632731812E+17
(PID.TID 0000.0001) %MON ad_dynstat_advvel_min        =  -3.5387800238601E+17
(PID.TID 0000.0001) %MON ad_dynstat_advvel_mean       =  -2.0863143173743E+12
(PID.TID 0000.0001) %MON ad_dynstat_advvel_sd         =   1.3964835634353E+15
(PID.TID 0000.0001) %MON ad_dynstat_advvel_del2       =   2.8126175461827E+12
(PID.TID 0000.0001) %MON ad_dynstat_adwvel_max        =   1.5654635692888E+18
(PID.TID 0000.0001) %MON ad_dynstat_adwvel_min        =  -9.9776232556588E+17
(PID.TID 0000.0001) %MON ad_dynstat_adwvel_mean       =  -4.5314374952050E+11
(PID.TID 0000.0001) %MON ad_dynstat_adwvel_sd         =   2.5875510917911E+15
(PID.TID 0000.0001) %MON ad_dynstat_adwvel_del2       =   4.1609411090866E+12
(PID.TID 0000.0001) %MON ad_dynstat_adtheta_max       =   7.8195402951954E+29
(PID.TID 0000.0001) %MON ad_dynstat_adtheta_min       =  -7.5058550282951E+29
(PID.TID 0000.0001) %MON ad_dynstat_adtheta_mean      =   6.8805748604719E+20
(PID.TID 0000.0001) %MON ad_dynstat_adtheta_sd        =   2.8105497389263E+27
(PID.TID 0000.0001) %MON ad_dynstat_adtheta_del2      =   1.0245465817756E+25
(PID.TID 0000.0001) %MON ad_dynstat_adsalt_max        =   1.9336356191738E+32
(PID.TID 0000.0001) %MON ad_dynstat_adsalt_min        =  -1.9102692811414E+32
(PID.TID 0000.0001) %MON ad_dynstat_adsalt_mean       =   1.5352923939890E+23
(PID.TID 0000.0001) %MON ad_dynstat_adsalt_sd         =   6.2762082734324E+29
(PID.TID 0000.0001) %MON ad_dynstat_adsalt_del2       =   2.1515787836199E+27
(PID.TID 0000.0001) #/ =======================================================
(PID.TID 0000.0001) #/ End AD_MONITOR dynamic field statistics
(PID.TID 0000.0001) #/ =======================================================
(PID.TID 0000.0001) #/ =======================================================
(PID.TID 0000.0001) #/ Begin AD_MONITOR dynamic field statistics
(PID.TID 0000.0001) #/ =======================================================
(PID.TID 0000.0001) %MON ad_time_tsnumber             =                 15408
(PID.TID 0000.0001) %MON ad_time_secondsf             =   4.6224000000000E+06
(PID.TID 0000.0001) %MON ad_dynstat_adeta_max         =   7.2807167176123E+02
(PID.TID 0000.0001) %MON ad_dynstat_adeta_min         =   0.0000000000000E+00
(PID.TID 0000.0001) %MON ad_dynstat_adeta_mean        =   1.5390328799794E+02
(PID.TID 0000.0001) %MON ad_dynstat_adeta_sd          =   2.9726486863677E+02
(PID.TID 0000.0001) %MON ad_dynstat_adeta_del2        =   7.0292866807386E-01
(PID.TID 0000.0001) %MON ad_dynstat_aduvel_max        =   1.6045055845136E+18
(PID.TID 0000.0001) %MON ad_dynstat_aduvel_min        =  -1.5116437693603E+18
(PID.TID 0000.0001) %MON ad_dynstat_aduvel_mean       =   4.2367966065692E+12
(PID.TID 0000.0001) %MON ad_dynstat_aduvel_sd         =   5.0307193177079E+15
(PID.TID 0000.0001) %MON ad_dynstat_aduvel_del2       =   1.1813503089560E+13
(PID.TID 0000.0001) %MON ad_dynstat_advvel_max        =   8.5084437699869E+17
(PID.TID 0000.0001) %MON ad_dynstat_advvel_min        =  -1.1917029912899E+18
(PID.TID 0000.0001) %MON ad_dynstat_advvel_mean       =   2.4984138476633E+12
(PID.TID 0000.0001) %MON ad_dynstat_advvel_sd         =   3.4312373634271E+15
(PID.TID 0000.0001) %MON ad_dynstat_advvel_del2       =   6.8933379328076E+12
(PID.TID 0000.0001) %MON ad_dynstat_adwvel_max        =   1.8754449254359E+18
(PID.TID 0000.0001) %MON ad_dynstat_adwvel_min        =  -2.6306027131155E+18
(PID.TID 0000.0001) %MON ad_dynstat_adwvel_mean       =  -5.3431724101968E+11
(PID.TID 0000.0001) %MON ad_dynstat_adwvel_sd         =   6.0892468772857E+15
(PID.TID 0000.0001) %MON ad_dynstat_adwvel_del2       =   1.0658759117554E+13
(PID.TID 0000.0001) %MON ad_dynstat_adtheta_max       =   1.7736312166860E+30
(PID.TID 0000.0001) %MON ad_dynstat_adtheta_min       =  -1.7098355174684E+30
(PID.TID 0000.0001) %MON ad_dynstat_adtheta_mean      =   1.2292432663403E+21
(PID.TID 0000.0001) %MON ad_dynstat_adtheta_sd        =   6.3869277425976E+27
(PID.TID 0000.0001) %MON ad_dynstat_adtheta_del2      =   2.3255620156924E+25
(PID.TID 0000.0001) %MON ad_dynstat_adsalt_max        =   4.4144439153453E+32
(PID.TID 0000.0001) %MON ad_dynstat_adsalt_min        =  -4.3773759887058E+32
(PID.TID 0000.0001) %MON ad_dynstat_adsalt_mean       =   3.8980065530822E+23
(PID.TID 0000.0001) %MON ad_dynstat_adsalt_sd         =   1.4380903459487E+30
(PID.TID 0000.0001) %MON ad_dynstat_adsalt_del2       =   4.9245105299618E+27
